************************************************************************
* auCdl Netlist:
* 
* Library Name:  composer
* Top Cell Name: final_ver1
* View Name:     schematic
* Netlisted on:  Jan 17 05:29:27 2022
************************************************************************

*.BIPOLAR
*.RESI = 2000 
*.RESVAL
*.CAPVAL
*.DIOPERI
*.DIOAREA
*.EQUATION
*.SCALE METER
*.MEGA
.PARAM



************************************************************************
* Library Name: composer
* Cell Name:    inverter
* View Name:    schematic
************************************************************************

.SUBCKT inverter gnd in out vdd
*.PININFO in:I out:O gnd:B vdd:B
MM1 out in vdd vdd P_18 W=1.5u L=180.00n m=1
MM0 out in gnd gnd N_18 W=500.0n L=180.00n m=1
.ENDS

************************************************************************
* Library Name: composer
* Cell Name:    latch
* View Name:    schematic
************************************************************************

.SUBCKT latch CLK Q QB R S VDD VSS
*.PININFO CLK:I R:I S:I Q:O QB:O VDD:B VSS:B
MM5 QB Q VDD VDD P_18 W=1u L=180.00n m=1
MM4 Q QB VDD VDD P_18 W=1u L=180.00n m=1
MM3 S CLK Q VSS N_18 W=750.00n L=180.00n m=1
MM2 QB Q VSS VSS N_18 W=500.0n L=180.00n m=1
MM1 Q QB VSS VSS N_18 W=500.0n L=180.00n m=1
MM0 R CLK QB VSS N_18 W=750.00n L=180.00n m=1
.ENDS

************************************************************************
* Library Name: composer
* Cell Name:    NAND4
* View Name:    schematic
************************************************************************

.SUBCKT NAND4 A B C D OUT VDD VSS
*.PININFO A:I B:I C:I D:I OUT:O VDD:B VSS:B
MM7 net8 D VSS VSS N_18 W=470.00n L=180.00n m=1
MM6 net12 C net8 VSS N_18 W=470.00n L=180.00n m=1
MM5 net16 B net12 VSS N_18 W=470.00n L=180.00n m=1
MM4 OUT A net16 VSS N_18 W=470.00n L=180.00n m=1
MM3 OUT D VDD VDD P_18 W=470.00n L=180.00n m=1
MM2 OUT C VDD VDD P_18 W=470.00n L=180.00n m=1
MM1 OUT B VDD VDD P_18 W=470.00n L=180.00n m=1
MM0 OUT A VDD VDD P_18 W=470.00n L=180.00n m=1
.ENDS

************************************************************************
* Library Name: composer
* Cell Name:    decoder_3to8
* View Name:    schematic
************************************************************************

.SUBCKT decoder_3to8 ENB VDD VSS in0 in1 in2 out0 out1 out2 out3 out4 out5 
+ out6 out7
*.PININFO ENB:I in0:I in1:I in2:I out0:O out1:O out2:O out3:O out4:O out5:O 
*.PININFO out6:O out7:O VDD:B VSS:B
XI12 in0 in1 net081 ENB out1 VDD VSS / NAND4
XI15 net96 in1 in2 ENB out4 VDD VSS / NAND4
XI16 net96 in1 net081 ENB out5 VDD VSS / NAND4
XI17 net96 net92 in2 ENB out6 VDD VSS / NAND4
XI18 net96 net92 net081 ENB out7 VDD VSS / NAND4
XI13 in0 net92 in2 ENB out2 VDD VSS / NAND4
XI14 in0 net92 net081 ENB out3 VDD VSS / NAND4
XI11 in0 in1 in2 ENB out0 VDD VSS / NAND4
XI10 VSS in2 net081 VDD / inverter
XI9 VSS in1 net92 VDD / inverter
XI8 VSS in0 net96 VDD / inverter
.ENDS

************************************************************************
* Library Name: composer
* Cell Name:    nor
* View Name:    schematic
************************************************************************

.SUBCKT nor A B gnd out vdd
*.PININFO A:I B:I out:O gnd:B vdd:B
MM3 net13 A vdd vdd P_18 W=470.00n L=180.00n m=1
MM2 out B net13 vdd P_18 W=470.00n L=180.00n m=1
MM1 out B gnd gnd N_18 W=470.00n L=180.00n m=1
MM0 out A gnd gnd N_18 W=470.00n L=180.00n m=1
.ENDS

************************************************************************
* Library Name: composer
* Cell Name:    decoder_6to64
* View Name:    schematic
************************************************************************

.SUBCKT decoder_6to64 ENB VDD VSS in0 in1 in2 in3 in4 in5 out0 out1 out2 out3 
+ out4 out5 out6 out7 out8 out9 out10 out11 out12 out13 out14 out15 out16 
+ out17 out18 out19 out20 out21 out22 out23 out24 out25 out26 out27 out28 
+ out29 out30 out31 out32 out33 out34 out35 out36 out37 out38 out39 out40 
+ out41 out42 out43 out44 out45 out46 out47 out48 out49 out50 out51 out52 
+ out53 out54 out55 out56 out57 out58 out59 out60 out61 out62 out63
*.PININFO ENB:I in0:I in1:I in2:I in3:I in4:I in5:I out0:O out1:O out2:O 
*.PININFO out3:O out4:O out5:O out6:O out7:O out8:O out9:O out10:O out11:O 
*.PININFO out12:O out13:O out14:O out15:O out16:O out17:O out18:O out19:O 
*.PININFO out20:O out21:O out22:O out23:O out24:O out25:O out26:O out27:O 
*.PININFO out28:O out29:O out30:O out31:O out32:O out33:O out34:O out35:O 
*.PININFO out36:O out37:O out38:O out39:O out40:O out41:O out42:O out43:O 
*.PININFO out44:O out45:O out46:O out47:O out48:O out49:O out50:O out51:O 
*.PININFO out52:O out53:O out54:O out55:O out56:O out57:O out58:O out59:O 
*.PININFO out60:O out61:O out62:O out63:O VDD:B VSS:B
XI1 ENB VDD VSS in3 in4 in5 net252 net264 net263 net262 net261 net260 net259 
+ net258 / decoder_3to8
XI0 ENB VDD VSS in0 in1 in2 net266 net278 net277 net276 net275 net274 net273 
+ net272 / decoder_3to8
XI65 net252 net272 VSS out56 VDD / nor
XI64 net264 net272 VSS out57 VDD / nor
XI63 net263 net272 VSS out58 VDD / nor
XI62 net262 net272 VSS out59 VDD / nor
XI61 net261 net272 VSS out60 VDD / nor
XI60 net260 net272 VSS out61 VDD / nor
XI59 net259 net272 VSS out62 VDD / nor
XI58 net258 net272 VSS out63 VDD / nor
XI57 net258 net273 VSS out55 VDD / nor
XI56 net259 net273 VSS out54 VDD / nor
XI55 net260 net273 VSS out53 VDD / nor
XI54 net261 net273 VSS out52 VDD / nor
XI53 net262 net273 VSS out51 VDD / nor
XI52 net263 net273 VSS out50 VDD / nor
XI51 net264 net273 VSS out49 VDD / nor
XI50 net252 net273 VSS out48 VDD / nor
XI49 net252 net274 VSS out40 VDD / nor
XI48 net264 net274 VSS out41 VDD / nor
XI47 net263 net274 VSS out42 VDD / nor
XI46 net262 net274 VSS out43 VDD / nor
XI45 net261 net274 VSS out44 VDD / nor
XI44 net260 net274 VSS out45 VDD / nor
XI43 net259 net274 VSS out46 VDD / nor
XI42 net258 net274 VSS out47 VDD / nor
XI41 net258 net275 VSS out39 VDD / nor
XI40 net259 net275 VSS out38 VDD / nor
XI39 net260 net275 VSS out37 VDD / nor
XI38 net261 net275 VSS out36 VDD / nor
XI37 net262 net275 VSS out35 VDD / nor
XI36 net263 net275 VSS out34 VDD / nor
XI35 net264 net275 VSS out33 VDD / nor
XI34 net252 net275 VSS out32 VDD / nor
XI33 net252 net276 VSS out24 VDD / nor
XI32 net264 net276 VSS out25 VDD / nor
XI31 net263 net276 VSS out26 VDD / nor
XI30 net262 net276 VSS out27 VDD / nor
XI29 net261 net276 VSS out28 VDD / nor
XI28 net260 net276 VSS out29 VDD / nor
XI27 net259 net276 VSS out30 VDD / nor
XI26 net258 net276 VSS out31 VDD / nor
XI25 net258 net277 VSS out23 VDD / nor
XI24 net259 net277 VSS out22 VDD / nor
XI23 net260 net277 VSS out21 VDD / nor
XI22 net261 net277 VSS out20 VDD / nor
XI21 net262 net277 VSS out19 VDD / nor
XI20 net263 net277 VSS out18 VDD / nor
XI19 net264 net277 VSS out17 VDD / nor
XI18 net252 net277 VSS out16 VDD / nor
XI17 net252 net278 VSS out8 VDD / nor
XI16 net264 net278 VSS out9 VDD / nor
XI15 net263 net278 VSS out10 VDD / nor
XI14 net262 net278 VSS out11 VDD / nor
XI13 net261 net278 VSS out12 VDD / nor
XI12 net260 net278 VSS out13 VDD / nor
XI11 net259 net278 VSS out14 VDD / nor
XI10 net258 net278 VSS out15 VDD / nor
XI9 net258 net266 VSS out7 VDD / nor
XI8 net259 net266 VSS out6 VDD / nor
XI7 net260 net266 VSS out5 VDD / nor
XI6 net261 net266 VSS out4 VDD / nor
XI5 net262 net266 VSS out3 VDD / nor
XI4 net263 net266 VSS out2 VDD / nor
XI3 net264 net266 VSS out1 VDD / nor
XI2 net252 net266 VSS out0 VDD / nor
.ENDS

************************************************************************
* Library Name: composer
* Cell Name:    NAND
* View Name:    schematic
************************************************************************

.SUBCKT NAND A B gnd out vdd
*.PININFO A:I B:I out:O gnd:B vdd:B
MM3 net5 A gnd gnd N_18 W=470.00n L=180.00n m=1
MM2 out B net5 gnd N_18 W=470.00n L=180.00n m=1
MM1 out B vdd vdd P_18 W=1.5u L=180.00n m=1
MM0 out A vdd vdd P_18 W=1.5u L=180.00n m=1
.ENDS

************************************************************************
* Library Name: composer
* Cell Name:    time_control
* View Name:    schematic
************************************************************************

.SUBCKT time_control SA_EN WL_ENB clk latch_clk pre_b vdd vss
*.PININFO clk:I SA_EN:O WL_ENB:O latch_clk:O pre_b:O vdd:B vss:B
XI1 net086 net086 vss net9 vdd / NAND
XI0 net37 pre_b vss WL_ENB vdd / NAND
MM28 net0100 SA_EN vss vss N_18 W=470.00n L=180.00n m=1
MM25 latch_clk net0100 vss vss N_18 W=470.00n L=180.00n m=1
MM18 net37 net0139 vss vss N_18 W=470.00n L=800.0n m=1
MM22 net082 pre_b vss vss N_18 W=470.00n L=180.00n m=1
MM16 SA_EN net9 vss vss N_18 W=470.00n L=180.00n m=1
MM21 net086 net082 vss vss N_18 W=470.00n L=300.0n m=1
MM7 net0139 net41 vss vss N_18 W=470.00n L=800.0n m=1
MM4 net41 clk vss vss N_18 W=470.00n L=800.0n m=1
MM2 pre_b net49 vss vss N_18 W=470.00n L=180.00n m=1
MM1 net49 clk vss vss N_18 W=470.00n L=180.00n m=1
MM29 net0100 SA_EN vdd vdd P_18 W=1.5u L=180.00n m=1
MM27 latch_clk net0100 vdd vdd P_18 W=1.5u L=180.00n m=1
MM24 net082 pre_b vdd vdd P_18 W=1.5u L=180.00n m=1
MM19 net37 net0139 vdd vdd P_18 W=1.5u L=800.0n m=1
MM17 SA_EN net9 vdd vdd P_18 W=1.5u L=180.00n m=1
MM23 net086 net082 vdd vdd P_18 W=1.5u L=300.0n m=1
MM6 net0139 net41 vdd vdd P_18 W=1.5u L=800.0n m=1
MM5 net41 clk vdd vdd P_18 W=1.5u L=800.0n m=1
MM3 pre_b net49 vdd vdd P_18 W=1.5u L=180.00n m=1
MM0 net49 clk vdd vdd P_18 W=1.5u L=180.00n m=1
.ENDS

************************************************************************
* Library Name: composer
* Cell Name:    DFF
* View Name:    schematic
************************************************************************

.SUBCKT DFF CLK D OUT VDD VSS
*.PININFO CLK:I D:I OUT:O VDD:B VSS:B
MM10 OUT net15 VSS VSS N_18 W=470.00n L=180.00n m=1
MM9 net5 net21 VSS VSS N_18 W=470.00n L=180.00n m=1
MM8 net9 CLK VSS VSS N_18 W=470.00n L=180.00n m=1
MM7 net13 D VSS VSS N_18 W=470.00n L=180.00n m=1
MM6 net15 CLK net5 VSS N_18 W=470.00n L=180.00n m=1
MM5 net21 net13 net9 VSS N_18 W=470.00n L=180.00n m=1
MM11 net15 OUT VDD VDD P_18 W=400.0n L=530.00n m=1
MM4 net13 CLK net28 VDD P_18 W=1.5u L=180.00n m=1
MM3 OUT net15 VDD VDD P_18 W=1.5u L=180.00n m=1
MM2 net15 net21 VDD VDD P_18 W=1.5u L=180.00n m=1
MM1 net21 CLK VDD VDD P_18 W=1.5u L=180.00n m=1
MM0 net28 D VDD VDD P_18 W=1.5u L=180.00n m=1
.ENDS

************************************************************************
* Library Name: composer
* Cell Name:    sense_amplifier
* View Name:    schematic
************************************************************************

.SUBCKT sense_amplifier EN INN INP SO SON gnd vdd
*.PININFO EN:I INN:I INP:I SO:O SON:O gnd:B vdd:B
MM8 SON EN vdd vdd P_18 W=1u L=180.00n m=1
MM7 SON SO vdd vdd P_18 W=3u L=180.00n m=1
MM6 SO SON vdd vdd P_18 W=3u L=180.00n m=1
MM5 SO EN vdd vdd P_18 W=1u L=180.00n m=1
MM4 net43 EN gnd gnd N_18 W=1u L=180.00n m=2
MM3 net28 INP net43 gnd N_18 W=1u L=180.00n m=1
MM2 SON SO net28 gnd N_18 W=1u L=180.00n m=1
MM1 SO SON net40 gnd N_18 W=1u L=180.00n m=1
MM0 net40 INN net43 gnd N_18 W=1u L=180.00n m=1
.ENDS

************************************************************************
* Library Name: composer
* Cell Name:    mux_16to2
* View Name:    schematic
************************************************************************

.SUBCKT mux_16to2 in0 in1 in2 in3 in4 in5 in6 in7 in8 in9 in10 in11 in12 in13 
+ in14 in15 index0 index1 index2 out0 out1 vdd vss
*.PININFO in0:I in1:I in2:I in3:I in4:I in5:I in6:I in7:I in8:I in9:I in10:I 
*.PININFO in11:I in12:I in13:I in14:I in15:I index0:I index1:I index2:I out0:O 
*.PININFO out1:O vdd:B vss:B
MM47 in8 index0 net29 vss N_18 W=500.0n L=180.00n m=1
MM46 in9 net48 net29 vss N_18 W=500.0n L=180.00n m=1
MM45 in11 net48 net33 vss N_18 W=500.0n L=180.00n m=1
MM44 in10 index0 net33 vss N_18 W=500.0n L=180.00n m=1
MM43 in12 index0 net45 vss N_18 W=500.0n L=180.00n m=1
MM42 in13 net48 net45 vss N_18 W=500.0n L=180.00n m=1
MM41 in15 net48 net49 vss N_18 W=500.0n L=180.00n m=1
MM40 in14 index0 net49 vss N_18 W=500.0n L=180.00n m=1
MM39 net33 net68 net57 vss N_18 W=500.0n L=180.00n m=1
MM38 net29 index1 net57 vss N_18 W=500.0n L=180.00n m=1
MM37 net45 index1 net69 vss N_18 W=500.0n L=180.00n m=1
MM36 net49 net68 net69 vss N_18 W=500.0n L=180.00n m=1
MM35 net57 index2 out1 vss N_18 W=500.0n L=180.00n m=1
MM34 net69 net76 out1 vss N_18 W=500.0n L=180.00n m=1
MM31 net89 net76 out0 vss N_18 W=500.0n L=180.00n m=1
MM30 net101 index2 out0 vss N_18 W=500.0n L=180.00n m=1
MM27 net109 net68 net89 vss N_18 W=500.0n L=180.00n m=1
MM26 net113 index1 net89 vss N_18 W=500.0n L=180.00n m=1
MM23 net141 index1 net101 vss N_18 W=500.0n L=180.00n m=1
MM22 net125 net68 net101 vss N_18 W=500.0n L=180.00n m=1
MM19 in6 index0 net109 vss N_18 W=500.0n L=180.00n m=1
MM18 in7 net48 net109 vss N_18 W=500.0n L=180.00n m=1
MM17 in5 net48 net113 vss N_18 W=500.0n L=180.00n m=1
MM16 in4 index0 net113 vss N_18 W=500.0n L=180.00n m=1
MM11 in2 index0 net125 vss N_18 W=500.0n L=180.00n m=1
MM10 in3 net48 net125 vss N_18 W=500.0n L=180.00n m=1
MM9 net76 index2 vss vss N_18 W=500.0n L=180.00n m=1
MM6 net68 index1 vss vss N_18 W=500.0n L=180.00n m=1
MM4 net48 index0 vss vss N_18 W=500.0n L=180.00n m=1
MM2 in1 net48 net141 vss N_18 W=500.0n L=180.00n m=1
MM1 in0 index0 net141 vss N_18 W=500.0n L=180.00n m=1
MM61 net29 net48 in8 vdd P_18 W=500.0n L=180.00n m=1
MM60 net29 index0 in9 vdd P_18 W=500.0n L=180.00n m=1
MM59 net33 index0 in11 vdd P_18 W=500.0n L=180.00n m=1
MM58 net33 net48 in10 vdd P_18 W=500.0n L=180.00n m=1
MM57 net45 net48 in12 vdd P_18 W=500.0n L=180.00n m=1
MM56 net45 index0 in13 vdd P_18 W=500.0n L=180.00n m=1
MM55 net49 index0 in15 vdd P_18 W=500.0n L=180.00n m=1
MM54 net49 net48 in14 vdd P_18 W=500.0n L=180.00n m=1
MM53 net57 index1 net33 vdd P_18 W=500.0n L=180.00n m=1
MM52 net57 net68 net29 vdd P_18 W=500.0n L=180.00n m=1
MM51 net69 net68 net45 vdd P_18 W=500.0n L=180.00n m=1
MM50 net69 index1 net49 vdd P_18 W=500.0n L=180.00n m=1
MM49 out1 net76 net57 vdd P_18 W=500.0n L=180.00n m=1
MM48 out1 index2 net69 vdd P_18 W=500.0n L=180.00n m=1
MM33 out0 index2 net89 vdd P_18 W=500.0n L=180.00n m=1
MM32 out0 net76 net101 vdd P_18 W=500.0n L=180.00n m=1
MM29 net89 index1 net109 vdd P_18 W=500.0n L=180.00n m=1
MM28 net89 net68 net113 vdd P_18 W=500.0n L=180.00n m=1
MM25 net101 net68 net141 vdd P_18 W=500.0n L=180.00n m=1
MM24 net101 index1 net125 vdd P_18 W=500.0n L=180.00n m=1
MM21 net109 net48 in6 vdd P_18 W=500.0n L=180.00n m=1
MM20 net109 index0 in7 vdd P_18 W=500.0n L=180.00n m=1
MM15 net113 index0 in5 vdd P_18 W=500.0n L=180.00n m=1
MM14 net113 net48 in4 vdd P_18 W=500.0n L=180.00n m=1
MM13 net125 net48 in2 vdd P_18 W=500.0n L=180.00n m=1
MM12 net125 index0 in3 vdd P_18 W=500.0n L=180.00n m=1
MM8 net76 index2 vdd vdd P_18 W=1.5u L=180.00n m=1
MM7 net68 index1 vdd vdd P_18 W=1.5u L=180.00n m=1
MM5 net48 index0 vdd vdd P_18 W=1.5u L=180.00n m=1
MM3 net141 index0 in1 vdd P_18 W=500.0n L=180.00n m=1
MM0 net141 net48 in0 vdd P_18 W=500.0n L=180.00n m=1
.ENDS

************************************************************************
* Library Name: composer
* Cell Name:    precharge
* View Name:    schematic
************************************************************************

.SUBCKT precharge VDD out0 out1 out2 out3 out4 out5 out6 out7 out8 out9 out10 
+ out11 out12 out13 out14 out15 pre_b
*.PININFO pre_b:I VDD:B out0:B out1:B out2:B out3:B out4:B out5:B out6:B 
*.PININFO out7:B out8:B out9:B out10:B out11:B out12:B out13:B out14:B out15:B
MM15 out9 pre_b VDD VDD P_18 W=470.00n L=180.00n m=1
MM14 out10 pre_b VDD VDD P_18 W=470.00n L=180.00n m=1
MM13 out8 pre_b VDD VDD P_18 W=470.00n L=180.00n m=1
MM12 out11 pre_b VDD VDD P_18 W=470.00n L=180.00n m=1
MM11 out15 pre_b VDD VDD P_18 W=470.00n L=180.00n m=1
MM10 out12 pre_b VDD VDD P_18 W=470.00n L=180.00n m=1
MM9 out14 pre_b VDD VDD P_18 W=470.00n L=180.00n m=1
MM8 out13 pre_b VDD VDD P_18 W=470.00n L=180.00n m=1
MM7 out5 pre_b VDD VDD P_18 W=470.00n L=180.00n m=1
MM6 out6 pre_b VDD VDD P_18 W=470.00n L=180.00n m=1
MM5 out4 pre_b VDD VDD P_18 W=470.00n L=180.00n m=1
MM4 out7 pre_b VDD VDD P_18 W=470.00n L=180.00n m=1
MM3 out3 pre_b VDD VDD P_18 W=470.00n L=180.00n m=1
MM2 out2 pre_b VDD VDD P_18 W=470.00n L=180.00n m=1
MM1 out1 pre_b VDD VDD P_18 W=470.00n L=180.00n m=1
MM0 out0 pre_b VDD VDD P_18 W=470.00n L=180.00n m=1
.ENDS

************************************************************************
* Library Name: composer
* Cell Name:    ROM
* View Name:    schematic
************************************************************************

.SUBCKT ROM BL<0> BL<1> BL<2> BL<3> BL<4> BL<5> BL<6> BL<7> BL<8> BL<9> BL<10> 
+ BL<11> BL<12> BL<13> BL<14> BL<15> VSS WL<0> WL<1> WL<2> WL<3> WL<4> WL<5> 
+ WL<6> WL<7> WL<8> WL<9> WL<10> WL<11> WL<12> WL<13> WL<14> WL<15> WL<16> 
+ WL<17> WL<18> WL<19> WL<20> WL<21> WL<22> WL<23> WL<24> WL<25> WL<26> WL<27> 
+ WL<28> WL<29> WL<30> WL<31> WL<32> WL<33> WL<34> WL<35> WL<36> WL<37> WL<38> 
+ WL<39> WL<40> WL<41> WL<42> WL<43> WL<44> WL<45> WL<46> WL<47> WL<48> WL<49> 
+ WL<50> WL<51> WL<52> WL<53> WL<54> WL<55> WL<56> WL<57> WL<58> WL<59> WL<60> 
+ WL<61> WL<62> WL<63>
*.PININFO WL<0>:I WL<1>:I WL<2>:I WL<3>:I WL<4>:I WL<5>:I WL<6>:I WL<7>:I 
*.PININFO WL<8>:I WL<9>:I WL<10>:I WL<11>:I WL<12>:I WL<13>:I WL<14>:I 
*.PININFO WL<15>:I WL<16>:I WL<17>:I WL<18>:I WL<19>:I WL<20>:I WL<21>:I 
*.PININFO WL<22>:I WL<23>:I WL<24>:I WL<25>:I WL<26>:I WL<27>:I WL<28>:I 
*.PININFO WL<29>:I WL<30>:I WL<31>:I WL<32>:I WL<33>:I WL<34>:I WL<35>:I 
*.PININFO WL<36>:I WL<37>:I WL<38>:I WL<39>:I WL<40>:I WL<41>:I WL<42>:I 
*.PININFO WL<43>:I WL<44>:I WL<45>:I WL<46>:I WL<47>:I WL<48>:I WL<49>:I 
*.PININFO WL<50>:I WL<51>:I WL<52>:I WL<53>:I WL<54>:I WL<55>:I WL<56>:I 
*.PININFO WL<57>:I WL<58>:I WL<59>:I WL<60>:I WL<61>:I WL<62>:I WL<63>:I 
*.PININFO BL<0>:O BL<1>:O BL<2>:O BL<3>:O BL<4>:O BL<5>:O BL<6>:O BL<7>:O 
*.PININFO BL<8>:O BL<9>:O BL<10>:O BL<11>:O BL<12>:O BL<13>:O BL<14>:O 
*.PININFO BL<15>:O VSS:B
MM1592 net01318 WL<63> VSS VSS N_18 W=470.00n L=180.00n m=1
MM1591 net01322 WL<63> VSS VSS N_18 W=470.00n L=180.00n m=1
MM1590 net01326 WL<63> VSS VSS N_18 W=470.00n L=180.00n m=1
MM1589 net01330 WL<63> VSS VSS N_18 W=470.00n L=180.00n m=1
MM1588 net01334 WL<63> VSS VSS N_18 W=470.00n L=180.00n m=1
MM1587 net01338 WL<63> VSS VSS N_18 W=470.00n L=180.00n m=1
MM1586 net01342 WL<63> VSS VSS N_18 W=470.00n L=180.00n m=1
MM1585 net01346 WL<63> VSS VSS N_18 W=470.00n L=180.00n m=1
MM1584 net01350 WL<61> VSS VSS N_18 W=470.00n L=180.00n m=1
MM1583 net01354 WL<61> VSS VSS N_18 W=470.00n L=180.00n m=1
MM1582 net01358 WL<61> VSS VSS N_18 W=470.00n L=180.00n m=1
MM1581 net01362 WL<61> VSS VSS N_18 W=470.00n L=180.00n m=1
MM1580 net01366 WL<61> VSS VSS N_18 W=470.00n L=180.00n m=1
MM1579 net01370 WL<61> VSS VSS N_18 W=470.00n L=180.00n m=1
MM1578 net01374 WL<61> VSS VSS N_18 W=470.00n L=180.00n m=1
MM1577 net01378 WL<61> VSS VSS N_18 W=470.00n L=180.00n m=1
MM1576 net01382 WL<59> VSS VSS N_18 W=470.00n L=180.00n m=1
MM1575 net01386 WL<59> VSS VSS N_18 W=470.00n L=180.00n m=1
MM1574 net01390 WL<59> VSS VSS N_18 W=470.00n L=180.00n m=1
MM1573 net01394 WL<59> VSS VSS N_18 W=470.00n L=180.00n m=1
MM1572 net01398 WL<59> VSS VSS N_18 W=470.00n L=180.00n m=1
MM1571 net01402 WL<59> VSS VSS N_18 W=470.00n L=180.00n m=1
MM1570 net01406 WL<59> VSS VSS N_18 W=470.00n L=180.00n m=1
MM1569 net01410 WL<59> VSS VSS N_18 W=470.00n L=180.00n m=1
MM1568 net01414 WL<57> VSS VSS N_18 W=470.00n L=180.00n m=1
MM1567 net01418 WL<57> VSS VSS N_18 W=470.00n L=180.00n m=1
MM1566 net01422 WL<57> VSS VSS N_18 W=470.00n L=180.00n m=1
MM1565 net01426 WL<57> VSS VSS N_18 W=470.00n L=180.00n m=1
MM1564 net01430 WL<57> VSS VSS N_18 W=470.00n L=180.00n m=1
MM1563 net01434 WL<57> VSS VSS N_18 W=470.00n L=180.00n m=1
MM1562 net01438 WL<57> VSS VSS N_18 W=470.00n L=180.00n m=1
MM1561 net01442 WL<57> VSS VSS N_18 W=470.00n L=180.00n m=1
MM1560 net01446 WL<55> VSS VSS N_18 W=470.00n L=180.00n m=1
MM1559 net01450 WL<55> VSS VSS N_18 W=470.00n L=180.00n m=1
MM1558 net01454 WL<55> VSS VSS N_18 W=470.00n L=180.00n m=1
MM1557 net01458 WL<55> VSS VSS N_18 W=470.00n L=180.00n m=1
MM1556 net01462 WL<55> VSS VSS N_18 W=470.00n L=180.00n m=1
MM1555 net01466 WL<55> VSS VSS N_18 W=470.00n L=180.00n m=1
MM1554 net01470 WL<55> VSS VSS N_18 W=470.00n L=180.00n m=1
MM1553 net01474 WL<55> VSS VSS N_18 W=470.00n L=180.00n m=1
MM1552 net01478 WL<53> VSS VSS N_18 W=470.00n L=180.00n m=1
MM1551 net01482 WL<53> VSS VSS N_18 W=470.00n L=180.00n m=1
MM1550 net01486 WL<53> VSS VSS N_18 W=470.00n L=180.00n m=1
MM1549 net01490 WL<53> VSS VSS N_18 W=470.00n L=180.00n m=1
MM1548 net01494 WL<53> VSS VSS N_18 W=470.00n L=180.00n m=1
MM1547 net01498 WL<53> VSS VSS N_18 W=470.00n L=180.00n m=1
MM1546 net01502 WL<53> VSS VSS N_18 W=470.00n L=180.00n m=1
MM1545 net01506 WL<53> VSS VSS N_18 W=470.00n L=180.00n m=1
MM1544 net01510 WL<51> VSS VSS N_18 W=470.00n L=180.00n m=1
MM1543 net01514 WL<51> VSS VSS N_18 W=470.00n L=180.00n m=1
MM1542 net01518 WL<51> VSS VSS N_18 W=470.00n L=180.00n m=1
MM1541 net01522 WL<51> VSS VSS N_18 W=470.00n L=180.00n m=1
MM1540 net01526 WL<51> VSS VSS N_18 W=470.00n L=180.00n m=1
MM1539 net01530 WL<51> VSS VSS N_18 W=470.00n L=180.00n m=1
MM1538 net01534 WL<51> VSS VSS N_18 W=470.00n L=180.00n m=1
MM1537 net01538 WL<51> VSS VSS N_18 W=470.00n L=180.00n m=1
MM1536 net01542 WL<49> VSS VSS N_18 W=470.00n L=180.00n m=1
MM1535 net01546 WL<49> VSS VSS N_18 W=470.00n L=180.00n m=1
MM1534 net01550 WL<49> VSS VSS N_18 W=470.00n L=180.00n m=1
MM1533 net01554 WL<49> VSS VSS N_18 W=470.00n L=180.00n m=1
MM1532 net01558 WL<49> VSS VSS N_18 W=470.00n L=180.00n m=1
MM1531 net01562 WL<49> VSS VSS N_18 W=470.00n L=180.00n m=1
MM1530 net01566 WL<49> VSS VSS N_18 W=470.00n L=180.00n m=1
MM1529 net01570 WL<49> VSS VSS N_18 W=470.00n L=180.00n m=1
MM1528 net01574 WL<47> VSS VSS N_18 W=470.00n L=180.00n m=1
MM1527 net01578 WL<47> VSS VSS N_18 W=470.00n L=180.00n m=1
MM1526 net01582 WL<47> VSS VSS N_18 W=470.00n L=180.00n m=1
MM1525 net01586 WL<47> VSS VSS N_18 W=470.00n L=180.00n m=1
MM1524 net01590 WL<47> VSS VSS N_18 W=470.00n L=180.00n m=1
MM1523 net01594 WL<47> VSS VSS N_18 W=470.00n L=180.00n m=1
MM1522 net01598 WL<47> VSS VSS N_18 W=470.00n L=180.00n m=1
MM1521 net01602 WL<47> VSS VSS N_18 W=470.00n L=180.00n m=1
MM1520 net01606 WL<45> VSS VSS N_18 W=470.00n L=180.00n m=1
MM1519 net01610 WL<45> VSS VSS N_18 W=470.00n L=180.00n m=1
MM1518 net01614 WL<45> VSS VSS N_18 W=470.00n L=180.00n m=1
MM1517 net01618 WL<45> VSS VSS N_18 W=470.00n L=180.00n m=1
MM1516 net01622 WL<45> VSS VSS N_18 W=470.00n L=180.00n m=1
MM1515 net01626 WL<45> VSS VSS N_18 W=470.00n L=180.00n m=1
MM1514 net01630 WL<45> VSS VSS N_18 W=470.00n L=180.00n m=1
MM1513 net01634 WL<45> VSS VSS N_18 W=470.00n L=180.00n m=1
MM1512 net01638 WL<43> VSS VSS N_18 W=470.00n L=180.00n m=1
MM1511 net01642 WL<43> VSS VSS N_18 W=470.00n L=180.00n m=1
MM1510 net01646 WL<43> VSS VSS N_18 W=470.00n L=180.00n m=1
MM1509 net01650 WL<43> VSS VSS N_18 W=470.00n L=180.00n m=1
MM1508 net01654 WL<43> VSS VSS N_18 W=470.00n L=180.00n m=1
MM1507 net01658 WL<43> VSS VSS N_18 W=470.00n L=180.00n m=1
MM1506 net01662 WL<43> VSS VSS N_18 W=470.00n L=180.00n m=1
MM1505 net01666 WL<43> VSS VSS N_18 W=470.00n L=180.00n m=1
MM1504 net01670 WL<41> VSS VSS N_18 W=470.00n L=180.00n m=1
MM1503 net01674 WL<41> VSS VSS N_18 W=470.00n L=180.00n m=1
MM1502 net01678 WL<41> VSS VSS N_18 W=470.00n L=180.00n m=1
MM1501 net01682 WL<41> VSS VSS N_18 W=470.00n L=180.00n m=1
MM1500 net01686 WL<41> VSS VSS N_18 W=470.00n L=180.00n m=1
MM1499 net01690 WL<41> VSS VSS N_18 W=470.00n L=180.00n m=1
MM1498 net01694 WL<41> VSS VSS N_18 W=470.00n L=180.00n m=1
MM1497 net01698 WL<41> VSS VSS N_18 W=470.00n L=180.00n m=1
MM1496 net01702 WL<39> VSS VSS N_18 W=470.00n L=180.00n m=1
MM1495 net01706 WL<39> VSS VSS N_18 W=470.00n L=180.00n m=1
MM1494 net01710 WL<39> VSS VSS N_18 W=470.00n L=180.00n m=1
MM1493 net01714 WL<39> VSS VSS N_18 W=470.00n L=180.00n m=1
MM1492 net01718 WL<39> VSS VSS N_18 W=470.00n L=180.00n m=1
MM1491 net01722 WL<39> VSS VSS N_18 W=470.00n L=180.00n m=1
MM1490 net01726 WL<39> VSS VSS N_18 W=470.00n L=180.00n m=1
MM1489 net01730 WL<39> VSS VSS N_18 W=470.00n L=180.00n m=1
MM1488 net01734 WL<37> VSS VSS N_18 W=470.00n L=180.00n m=1
MM1487 net01738 WL<37> VSS VSS N_18 W=470.00n L=180.00n m=1
MM1486 net01742 WL<37> VSS VSS N_18 W=470.00n L=180.00n m=1
MM1485 net01746 WL<37> VSS VSS N_18 W=470.00n L=180.00n m=1
MM1484 net01750 WL<37> VSS VSS N_18 W=470.00n L=180.00n m=1
MM1483 net01754 WL<37> VSS VSS N_18 W=470.00n L=180.00n m=1
MM1482 net01758 WL<37> VSS VSS N_18 W=470.00n L=180.00n m=1
MM1481 net01762 WL<37> VSS VSS N_18 W=470.00n L=180.00n m=1
MM1480 net01766 WL<35> VSS VSS N_18 W=470.00n L=180.00n m=1
MM1479 net01770 WL<35> VSS VSS N_18 W=470.00n L=180.00n m=1
MM1478 net01774 WL<35> VSS VSS N_18 W=470.00n L=180.00n m=1
MM1477 net01778 WL<35> VSS VSS N_18 W=470.00n L=180.00n m=1
MM1476 net01782 WL<35> VSS VSS N_18 W=470.00n L=180.00n m=1
MM1475 net01786 WL<35> VSS VSS N_18 W=470.00n L=180.00n m=1
MM1474 net01790 WL<35> VSS VSS N_18 W=470.00n L=180.00n m=1
MM1473 net01794 WL<35> VSS VSS N_18 W=470.00n L=180.00n m=1
MM1472 net01798 WL<33> VSS VSS N_18 W=470.00n L=180.00n m=1
MM1471 net01802 WL<33> VSS VSS N_18 W=470.00n L=180.00n m=1
MM1470 net01806 WL<33> VSS VSS N_18 W=470.00n L=180.00n m=1
MM1469 net01810 WL<33> VSS VSS N_18 W=470.00n L=180.00n m=1
MM1468 net01814 WL<33> VSS VSS N_18 W=470.00n L=180.00n m=1
MM1467 net01818 WL<33> VSS VSS N_18 W=470.00n L=180.00n m=1
MM1466 net01822 WL<33> VSS VSS N_18 W=470.00n L=180.00n m=1
MM1465 net01826 WL<33> VSS VSS N_18 W=470.00n L=180.00n m=1
MM1464 net01830 WL<31> VSS VSS N_18 W=470.00n L=180.00n m=1
MM1463 net01834 WL<31> VSS VSS N_18 W=470.00n L=180.00n m=1
MM1462 net01838 WL<31> VSS VSS N_18 W=470.00n L=180.00n m=1
MM1461 net01842 WL<31> VSS VSS N_18 W=470.00n L=180.00n m=1
MM1460 net01846 WL<31> VSS VSS N_18 W=470.00n L=180.00n m=1
MM1459 net01850 WL<31> VSS VSS N_18 W=470.00n L=180.00n m=1
MM1458 net01854 WL<31> VSS VSS N_18 W=470.00n L=180.00n m=1
MM1457 net01858 WL<31> VSS VSS N_18 W=470.00n L=180.00n m=1
MM1456 net01862 WL<29> VSS VSS N_18 W=470.00n L=180.00n m=1
MM1455 net01866 WL<29> VSS VSS N_18 W=470.00n L=180.00n m=1
MM1454 net01870 WL<29> VSS VSS N_18 W=470.00n L=180.00n m=1
MM1453 net01874 WL<29> VSS VSS N_18 W=470.00n L=180.00n m=1
MM1452 net01878 WL<29> VSS VSS N_18 W=470.00n L=180.00n m=1
MM1451 net01882 WL<29> VSS VSS N_18 W=470.00n L=180.00n m=1
MM1450 net01886 WL<29> VSS VSS N_18 W=470.00n L=180.00n m=1
MM1449 net01890 WL<29> VSS VSS N_18 W=470.00n L=180.00n m=1
MM1448 net01894 WL<27> VSS VSS N_18 W=470.00n L=180.00n m=1
MM1447 net01898 WL<27> VSS VSS N_18 W=470.00n L=180.00n m=1
MM1446 net01902 WL<27> VSS VSS N_18 W=470.00n L=180.00n m=1
MM1445 net01906 WL<27> VSS VSS N_18 W=470.00n L=180.00n m=1
MM1444 net01910 WL<27> VSS VSS N_18 W=470.00n L=180.00n m=1
MM1443 net01914 WL<27> VSS VSS N_18 W=470.00n L=180.00n m=1
MM1442 net01918 WL<27> VSS VSS N_18 W=470.00n L=180.00n m=1
MM1441 net01922 WL<27> VSS VSS N_18 W=470.00n L=180.00n m=1
MM1440 net01926 WL<25> VSS VSS N_18 W=470.00n L=180.00n m=1
MM1439 net01930 WL<25> VSS VSS N_18 W=470.00n L=180.00n m=1
MM1438 net01934 WL<25> VSS VSS N_18 W=470.00n L=180.00n m=1
MM1437 net01938 WL<25> VSS VSS N_18 W=470.00n L=180.00n m=1
MM1436 net01942 WL<25> VSS VSS N_18 W=470.00n L=180.00n m=1
MM1435 net01946 WL<25> VSS VSS N_18 W=470.00n L=180.00n m=1
MM1434 net01950 WL<25> VSS VSS N_18 W=470.00n L=180.00n m=1
MM1433 net01954 WL<25> VSS VSS N_18 W=470.00n L=180.00n m=1
MM1432 net01958 WL<23> VSS VSS N_18 W=470.00n L=180.00n m=1
MM1431 net01962 WL<23> VSS VSS N_18 W=470.00n L=180.00n m=1
MM1430 net01966 WL<23> VSS VSS N_18 W=470.00n L=180.00n m=1
MM1429 net01970 WL<23> VSS VSS N_18 W=470.00n L=180.00n m=1
MM1428 net01974 WL<23> VSS VSS N_18 W=470.00n L=180.00n m=1
MM1427 net01978 WL<23> VSS VSS N_18 W=470.00n L=180.00n m=1
MM1426 net01982 WL<23> VSS VSS N_18 W=470.00n L=180.00n m=1
MM1425 net01986 WL<23> VSS VSS N_18 W=470.00n L=180.00n m=1
MM1424 net01990 WL<21> VSS VSS N_18 W=470.00n L=180.00n m=1
MM1423 net01994 WL<21> VSS VSS N_18 W=470.00n L=180.00n m=1
MM1422 net01998 WL<21> VSS VSS N_18 W=470.00n L=180.00n m=1
MM1421 net02002 WL<21> VSS VSS N_18 W=470.00n L=180.00n m=1
MM1420 net02006 WL<21> VSS VSS N_18 W=470.00n L=180.00n m=1
MM1419 net02010 WL<21> VSS VSS N_18 W=470.00n L=180.00n m=1
MM1418 net02014 WL<21> VSS VSS N_18 W=470.00n L=180.00n m=1
MM1417 net02018 WL<21> VSS VSS N_18 W=470.00n L=180.00n m=1
MM1416 net02022 WL<19> VSS VSS N_18 W=470.00n L=180.00n m=1
MM1415 net02026 WL<19> VSS VSS N_18 W=470.00n L=180.00n m=1
MM1414 net02030 WL<19> VSS VSS N_18 W=470.00n L=180.00n m=1
MM1413 net02034 WL<19> VSS VSS N_18 W=470.00n L=180.00n m=1
MM1412 net02038 WL<19> VSS VSS N_18 W=470.00n L=180.00n m=1
MM1411 net02042 WL<19> VSS VSS N_18 W=470.00n L=180.00n m=1
MM1410 net02046 WL<19> VSS VSS N_18 W=470.00n L=180.00n m=1
MM1409 net02050 WL<19> VSS VSS N_18 W=470.00n L=180.00n m=1
MM1408 net02054 WL<17> VSS VSS N_18 W=470.00n L=180.00n m=1
MM1407 net02058 WL<17> VSS VSS N_18 W=470.00n L=180.00n m=1
MM1406 net02062 WL<17> VSS VSS N_18 W=470.00n L=180.00n m=1
MM1405 net02066 WL<17> VSS VSS N_18 W=470.00n L=180.00n m=1
MM1404 net02070 WL<17> VSS VSS N_18 W=470.00n L=180.00n m=1
MM1403 net02074 WL<17> VSS VSS N_18 W=470.00n L=180.00n m=1
MM1402 net02078 WL<17> VSS VSS N_18 W=470.00n L=180.00n m=1
MM1401 net02082 WL<17> VSS VSS N_18 W=470.00n L=180.00n m=1
MM1400 net02086 WL<15> VSS VSS N_18 W=470.00n L=180.00n m=1
MM1399 net02090 WL<15> VSS VSS N_18 W=470.00n L=180.00n m=1
MM1398 net02094 WL<15> VSS VSS N_18 W=470.00n L=180.00n m=1
MM1397 net02098 WL<15> VSS VSS N_18 W=470.00n L=180.00n m=1
MM1396 net02102 WL<15> VSS VSS N_18 W=470.00n L=180.00n m=1
MM1395 net02106 WL<15> VSS VSS N_18 W=470.00n L=180.00n m=1
MM1394 net02110 WL<15> VSS VSS N_18 W=470.00n L=180.00n m=1
MM1393 net02114 WL<15> VSS VSS N_18 W=470.00n L=180.00n m=1