* File: ROM_MACRO.pex.spi.pex
* Created: Mon Jan 17 05:42:50 2022
* Program "Calibre xRC"
* Version "v2021.1_33.19"
* Nominal Temperature: 27C
* Circuit Temperature: 27C
* 
.subckt PM_ROM_MACRO%NET100 54 59 66 69 76 80 84 88 92 96 100 104 108
c0 158 0 0.990323f
c1 152 0 0.929525f
c2 146 0 0.929525f
c3 140 0 0.929525f
c4 135 0 0.0912164f
c5 134 0 0.0920527f
c6 133 0 0.135127f
c7 130 0 0.0941768f
c8 129 0 0.0942559f
c9 128 0 0.152419f
c10 125 0 0.0941768f
c11 124 0 0.0942559f
c12 123 0 0.152419f
c13 120 0 0.0941768f
c14 119 0 0.0942559f
c15 118 0 0.152419f
c16 114 0 0.107171f
c17 112 0 0.137692f
c18 108 0 0.104765f
c19 104 0 0.109652f
c20 100 0 0.109847f
c21 96 0 0.109847f
c22 76 0 0.271273f
c23 73 0 0.212977f
c24 69 0 0.147454f
c25 64 0 0.0869409f
c26 57 0 0.30996f
c27 56 0 0.00180732f
c28 51 0 3.80863f
c29 48 0 0.00395733f
c30 47 0 0.0692559f
c31 44 0 0.137428f
c32 40 0 0.0493361f
c33 38 0 0.0919984f
c34 37 0 0.138597f
c35 35 0 0.0586771f
c36 32 0 0.123039f
c37 31 0 0.204311f
c38 29 0 0.44274f
c39 15 0 4.44674f
r40 133 158 8
r41 132 135 8.05107
r42 132 134 8.08937
r43 132 133 13.2552
r44 128 152 8
r45 127 130 8.05107
r46 127 129 8.08937
r47 127 128 13.2552
r48 123 146 8
r49 122 125 8.05107
r50 122 124 8.08937
r51 122 123 13.2552
r52 118 140 8
r53 117 120 8.05107
r54 117 119 8.08937
r55 117 118 13.2552
r56 111 114 6.20426
r57 111 112 13.2552
r58 108 135 23.75
r59 104 130 23.75
r60 100 125 23.75
r61 96 120 23.75
r62 92 134 22.75
r63 88 129 22.75
r64 84 124 22.75
r65 80 119 22.75
r66 72 76 10.5962
r67 72 73 13.2552
r68 67 114 4.73303
r69 67 69 50.75
r70 64 114 4.73303
r71 64 66 22.25
r72 61 62 16.3327
r73 59 61 4.88298
r74 56 57 5.44423
r75 54 56 1.53
r76 51 52 8
r77 49 51 7.5673
r78 47 49 0.0363174
r79 47 48 0.1898
r80 45 112 8
r81 44 45 8
r82 42 48 0.0363174
r83 42 44 1.0634
r84 39 57 0.166205
r85 39 40 0.0296412
r86 38 73 0.173091
r87 37 40 0.00770322
r88 36 38 0.0394653
r89 36 37 0.166923
r90 35 52 0.1352
r91 34 35 2.66667
r92 32 62 0.0362786
r93 32 34 0.0531282
r94 31 40 0.0296412
r95 31 34 0.158667
r96 29 45 0.4575
r97 28 29 4
r98 26 158 1.6926
r99 25 28 0.120256
r100 25 26 8
r101 23 152 1.6926
r102 22 25 0.664103
r103 22 23 8
r104 20 146 1.6926
r105 19 22 0.664103
r106 19 20 8
r107 16 140 1.6926
r108 15 19 0.664103
r109 15 16 8
.ends

.subckt PM_ROM_MACRO%NET105 54 59 66 69 76 80 84 88 92 96 100 104 108
c0 158 0 1.16379f
c1 152 0 1.16095f
c2 146 0 1.16095f
c3 140 0 1.16095f
c4 135 0 0.109082f
c5 134 0 0.103624f
c6 133 0 0.154225f
c7 130 0 0.109082f
c8 129 0 0.103659f
c9 128 0 0.154225f
c10 125 0 0.109082f
c11 124 0 0.103659f
c12 123 0 0.154225f
c13 120 0 0.109082f
c14 119 0 0.103659f
c15 118 0 0.154225f
c16 114 0 0.11213f
c17 112 0 0.16189f
c18 108 0 0.123355f
c19 104 0 0.123388f
c20 100 0 0.122091f
c21 96 0 0.123388f
c22 76 0 0.276018f
c23 73 0 0.213148f
c24 69 0 0.16348f
c25 64 0 0.0926485f
c26 57 0 0.280223f
c27 56 0 0.00180732f
c28 53 0 0.0485103f
c29 50 0 0.0302499f
c30 49 0 7.88148f
c31 44 0 0.222878f
c32 40 0 0.0226662f
c33 38 0 0.0919984f
c34 37 0 0.137252f
c35 34 0 0.668954f
c36 20 0 6.14412f
c37 15 0 0.118248f
c38 14 0 0.156037f
r39 133 158 8
r40 132 135 8.05107
r41 132 134 8.08937
r42 132 133 13.2552
r43 128 152 8
r44 127 130 8.05107
r45 127 129 8.08937
r46 127 128 13.2552
r47 123 146 8
r48 122 125 8.05107
r49 122 124 8.08937
r50 122 123 13.2552
r51 118 140 8
r52 117 120 8.05107
r53 117 119 8.08937
r54 117 118 13.2552
r55 111 114 6.20426
r56 111 112 13.2552
r57 108 135 23.75
r58 104 130 23.75
r59 100 125 23.75
r60 96 120 23.75
r61 92 134 22.75
r62 88 129 22.75
r63 84 124 22.75
r64 80 119 22.75
r65 72 76 10.5962
r66 72 73 13.2552
r67 67 114 4.73303
r68 67 69 50.75
r69 64 114 4.73303
r70 64 66 22.25
r71 61 62 16.3327
r72 59 61 4.88298
r73 56 57 5.44423
r74 54 56 1.53
r75 52 53 0.0605172
r76 49 52 9.5121
r77 49 50 8
r78 45 112 8
r79 44 53 0.8554
r80 44 45 8
r81 39 57 0.166205
r82 39 40 0.0296412
r83 38 73 0.173091
r84 37 40 0.00770322
r85 36 38 0.0394653
r86 36 37 0.166923
r87 34 45 0.4575
r88 33 34 4
r89 31 158 1.313
r90 30 33 0.249487
r91 30 31 8
r92 28 152 1.313
r93 27 30 0.664103
r94 27 28 8
r95 25 146 1.313
r96 24 27 1.99231
r97 24 25 8
r98 21 140 1.313
r99 20 24 0.664103
r100 20 21 8
r101 17 50 2.66667
r102 15 62 0.0362786
r103 15 17 0.0710769
r104 14 40 0.0296412
r105 14 17 0.140718
.ends

.subckt PM_ROM_MACRO%NET85 43 48 58 62 66 70 74 78 82
c0 133 0 0.0585709f
c1 126 0 0.0786856f
c2 119 0 0.298259f
c3 112 0 0.0599588f
c4 111 0 0.134923f
c5 106 0 0.13142f
c6 104 0 0.113074f
c7 100 0 0.0691225f
c8 99 0 0.137547f
c9 94 0 0.13475f
c10 92 0 0.116896f
c11 88 0 0.108962f
c12 86 0 0.165144f
c13 82 0 0.10644f
c14 78 0 0.109969f
c15 74 0 0.10644f
c16 70 0 0.110346f
c17 66 0 0.105628f
c18 62 0 0.145579f
c19 58 0 0.269984f
c20 55 0 0.210873f
c21 46 0 0.2759f
c22 40 0 2.38648f
c23 38 0 0.0190233f
c24 36 0 0.0202096f
c25 35 0 1.71014f
c26 30 0 0.0196247f
c27 27 0 0.0873429f
c28 26 0 0.128658f
c29 24 0 0.118248f
c30 23 0 0.156831f
c31 16 0 0.0630879f
c32 15 0 0.998913f
c33 14 0 0.0558658f
c34 13 0 0.0193132f
c35 12 0 0.370767f
c36 10 0 0.0236731f
c37 9 0 0.760056f
c38 6 0 0.0818104f
c39 4 0 0.093483f
r40 112 133 8
r41 111 112 13.2552
r42 108 111 6.03191
r43 104 130 8
r44 103 106 6.03191
r45 103 104 13.2552
r46 100 126 8
r47 99 100 13.2552
r48 96 99 6.03191
r49 92 123 8
r50 91 94 6.03191
r51 91 92 13.2552
r52 86 119 8
r53 85 88 6.20426
r54 85 86 13.2552
r55 80 108 4.73303
r56 80 82 23.5
r57 76 106 4.73303
r58 76 78 23.5
r59 72 96 4.73303
r60 72 74 23.5
r61 68 94 4.73303
r62 68 70 23.5
r63 64 88 4.73303
r64 64 66 25.25
r65 60 88 4.73303
r66 60 62 51.25
r67 54 58 10.5962
r68 54 55 13.2552
r69 50 51 16.3327
r70 48 50 4.88298
r71 45 46 5.44423
r72 43 45 1.53
r73 40 41 4
r74 38 40 4.20446
r75 35 36 8
r76 33 38 0.0363174
r77 33 35 4.3862
r78 30 36 2.66667
r79 28 46 0.166205
r80 28 30 0.0296412
r81 27 55 0.173091
r82 26 30 0.00770322
r83 25 27 0.0394653
r84 25 26 0.166923
r85 24 51 0.0362786
r86 23 30 0.0296412
r87 23 24 0.211795
r88 16 133 0.1391
r89 15 130 0.105379
r90 14 126 0.1391
r91 12 123 0.105379
r92 12 13 0.0217198
r93 11 130 1.53932
r94 11 13 0.0217198
r95 9 41 0.917682
r96 9 10 0.0275239
r97 8 123 0.700227
r98 8 10 0.0275239
r99 7 119 0.51803
r100 7 10 0.00715299
r101 6 16 0.0363174
r102 5 15 0.0372233
r103 5 6 0.7124
r104 4 14 0.0363174
r105 3 13 0.0125679
r106 3 4 0.7124
.ends

.subckt PM_ROM_MACRO%NET95 54 59 66 69 76 80 84 88 92 96 100 104 108
c0 161 0 1.0096f
c1 155 0 1.00634f
c2 149 0 1.00634f
c3 143 0 1.00598f
c4 135 0 0.109581f
c5 134 0 0.103549f
c6 133 0 0.159481f
c7 130 0 0.109581f
c8 129 0 0.103552f
c9 128 0 0.159481f
c10 125 0 0.109581f
c11 124 0 0.103552f
c12 123 0 0.159481f
c13 120 0 0.109581f
c14 119 0 0.103552f
c15 118 0 0.159481f
c16 114 0 0.108937f
c17 112 0 0.161585f
c18 108 0 0.116347f
c19 104 0 0.116685f
c20 100 0 0.121805f
c21 96 0 0.121805f
c22 76 0 0.278396f
c23 73 0 0.213148f
c24 69 0 0.148519f
c25 64 0 0.0869564f
c26 57 0 0.280223f
c27 56 0 0.00230577f
c28 51 0 0.171683f
c29 48 0 0.0390415f
c30 47 0 0.0574841f
c31 45 0 0.0126355f
c32 44 0 6.19809f
c33 40 0 0.0226662f
c34 38 0 0.0895911f
c35 36 0 0.669016f
c36 22 0 5.89454f
c37 20 0 0.130483f
c38 15 0 0.118248f
c39 14 0 0.153339f
r40 133 161 8
r41 132 135 8.05107
r42 132 134 8.08937
r43 132 133 13.2552
r44 128 155 8
r45 127 130 8.05107
r46 127 129 8.08937
r47 127 128 13.2552
r48 123 149 8
r49 122 125 8.05107
r50 122 124 8.08937
r51 122 123 13.2552
r52 118 143 8
r53 117 120 8.05107
r54 117 119 8.08937
r55 117 118 13.2552
r56 111 114 6.20426
r57 111 112 13.2552
r58 108 135 23.75
r59 104 130 23.75
r60 100 125 23.75
r61 96 120 23.75
r62 92 134 22.75
r63 88 129 22.75
r64 84 124 22.75
r65 80 119 22.75
r66 72 76 10.5962
r67 72 73 13.2552
r68 67 114 4.73303
r69 67 69 50.75
r70 64 114 4.73303
r71 64 66 22.25
r72 61 62 16.3327
r73 59 61 4.88298
r74 56 57 5.44423
r75 54 56 1.53
r76 52 112 8
r77 51 52 8
r78 49 51 0.7839
r79 47 49 0.0363174
r80 47 48 0.169
r81 44 45 8
r82 42 48 0.0363174
r83 42 44 11.3308
r84 39 57 0.166205
r85 39 40 0.0296412
r86 38 73 0.173091
r87 36 52 0.4575
r88 35 36 4
r89 33 161 0.9334
r90 32 35 0.378718
r91 32 33 8
r92 30 155 0.9334
r93 29 32 1.32821
r94 29 30 8
r95 27 149 0.9334
r96 26 29 1.32821
r97 26 27 8
r98 23 143 0.9334
r99 22 26 1.32821
r100 22 23 8
r101 20 40 0.00770322
r102 19 38 0.0394653
r103 19 20 0.166923
r104 17 45 2.66667
r105 15 62 0.0362786
r106 15 17 0.146462
r107 14 40 0.0296412
r108 14 17 0.0653333
.ends

.subckt PM_ROM_MACRO%NET125 57 62 72 76 80 84 88 92 96 100 104 108 112
c0 202 0 0.0356622f
c1 195 0 0.0567722f
c2 188 0 0.0567722f
c3 181 0 0.0567722f
c4 175 0 0.322513f
c5 174 0 0.159646f
c6 166 0 0.116147f
c7 165 0 0.140447f
c8 160 0 0.126163f
c9 158 0 0.0889827f
c10 154 0 0.121842f
c11 153 0 0.142778f
c12 148 0 0.130244f
c13 146 0 0.079229f
c14 142 0 0.121842f
c15 141 0 0.142778f
c16 136 0 0.130652f
c17 134 0 0.0919455f
c18 130 0 0.121842f
c19 129 0 0.142778f
c20 124 0 0.132472f
c21 122 0 0.09326f
c22 118 0 0.112155f
c23 112 0 0.106942f
c24 108 0 0.109899f
c25 104 0 0.106942f
c26 100 0 0.110277f
c27 96 0 0.106942f
c28 92 0 0.110277f
c29 88 0 0.106942f
c30 84 0 0.110314f
c31 80 0 0.0947914f
c32 76 0 0.161531f
c33 72 0 0.263481f
c34 69 0 0.209106f
c35 60 0 0.273818f
c36 54 0 2.75387f
c37 52 0 0.0694646f
c38 50 0 0.046316f
c39 49 0 1.36369f
c40 45 0 0.0259454f
c41 43 0 0.0940103f
c42 42 0 0.138296f
c43 40 0 0.118385f
c44 39 0 0.156831f
c45 28 0 0.0504687f
c46 27 0 0.351771f
c47 26 0 0.0461144f
c48 25 0 0.00812013f
c49 24 0 0.252671f
c50 22 0 0.0461144f
c51 21 0 0.00812013f
c52 20 0 0.35264f
c53 18 0 0.0461144f
c54 17 0 0.00812013f
c55 16 0 0.258978f
c56 13 0 0.0419962f
c57 11 0 0.771856f
c58 10 0 0.0813086f
c59 8 0 0.0929811f
c60 6 0 0.0929811f
c61 4 0 0.0929868f
r62 174 175 8
r63 166 202 8
r64 165 166 13.2552
r65 162 165 6.03191
r66 158 199 8
r67 157 160 6.03191
r68 157 158 13.2552
r69 154 195 8
r70 153 154 13.2552
r71 150 153 6.03191
r72 146 192 8
r73 145 148 6.03191
r74 145 146 13.2552
r75 142 188 8
r76 141 142 13.2552
r77 138 141 6.03191
r78 134 185 8
r79 133 136 6.03191
r80 133 134 13.2552
r81 130 181 8
r82 129 130 13.2552
r83 126 129 6.03191
r84 122 178 8
r85 121 124 6.01277
r86 121 122 13.2552
r87 115 118 6.20426
r88 115 174 13.2552
r89 110 162 4.73303
r90 110 112 23.5
r91 106 160 4.73303
r92 106 108 23.5
r93 102 150 4.73303
r94 102 104 23.5
r95 98 148 4.73303
r96 98 100 23.5
r97 94 138 4.73303
r98 94 96 23.5
r99 90 136 4.73303
r100 90 92 23.5
r101 86 126 4.73303
r102 86 88 23.5
r103 82 124 4.73303
r104 82 84 23.5
r105 78 118 4.73303
r106 78 80 25.25
r107 74 118 4.73303
r108 74 76 51.25
r109 68 72 10.5962
r110 68 69 13.2552
r111 64 65 16.3327
r112 62 64 4.88298
r113 60 170 0.114872
r114 59 60 5.44423
r115 57 59 1.53
r116 54 55 4
r117 52 54 4.06926
r118 50 170 2.66667
r119 49 50 8
r120 47 52 0.0363174
r121 47 49 2.4804
r122 44 170 0.0513333
r123 44 45 0.0296412
r124 43 69 0.173091
r125 42 45 0.00770322
r126 41 43 0.0394653
r127 41 42 0.166923
r128 40 65 0.0362786
r129 39 45 0.0296412
r130 39 40 0.211795
r131 28 202 0.1391
r132 27 199 0.105379
r133 26 195 0.1391
r134 24 192 0.105379
r135 24 25 0.0217198
r136 23 199 0.692348
r137 23 25 0.0217198
r138 22 188 0.1391
r139 20 185 0.105379
r140 20 21 0.0217198
r141 19 192 0.692348
r142 19 21 0.0217198
r143 18 181 0.1391
r144 16 178 0.105182
r145 16 17 0.0217198
r146 15 185 0.692348
r147 15 17 0.0217198
r148 14 175 0.155606
r149 13 178 0.566485
r150 13 14 0.0363174
r151 12 175 0.393939
r152 11 55 0.628136
r153 11 12 0.0363174
r154 10 28 0.0363174
r155 9 27 0.0372233
r156 9 10 0.7124
r157 8 26 0.0363174
r158 7 25 0.0125679
r159 7 8 0.7124
r160 6 22 0.0363174
r161 5 21 0.0125679
r162 5 6 0.7124
r163 4 18 0.0363174
r164 3 17 0.0125679
r165 3 4 0.7124
.ends

.subckt PM_ROM_MACRO%NET120 91 96 102 110 114 118 122 126 130 134 138 142 146
+ 150 154 158 162 166 170 174 178
c0 345 0 0.0484577f
c1 289 0 0.829662f
c2 280 0 0.0801304f
c3 279 0 0.125576f
c4 274 0 0.156026f
c5 272 0 0.121349f
c6 268 0 0.0824412f
c7 267 0 0.121142f
c8 262 0 0.15418f
c9 260 0 0.11602f
c10 256 0 0.0824412f
c11 255 0 0.121142f
c12 250 0 0.157753f
c13 248 0 0.120528f
c14 244 0 0.0824412f
c15 243 0 0.121142f
c16 238 0 0.15418f
c17 236 0 0.11602f
c18 232 0 0.0824412f
c19 231 0 0.121142f
c20 226 0 0.157753f
c21 224 0 0.120528f
c22 220 0 0.0824412f
c23 219 0 0.121142f
c24 214 0 0.15418f
c25 212 0 0.11602f
c26 208 0 0.0824412f
c27 207 0 0.121142f
c28 202 0 0.157753f
c29 200 0 0.120528f
c30 196 0 0.0824412f
c31 195 0 0.125027f
c32 190 0 0.139291f
c33 188 0 0.0940634f
c34 184 0 0.110807f
c35 182 0 0.168292f
c36 178 0 0.10901f
c37 174 0 0.115385f
c38 170 0 0.114444f
c39 166 0 0.115385f
c40 162 0 0.114445f
c41 158 0 0.115385f
c42 154 0 0.114444f
c43 150 0 0.115385f
c44 146 0 0.114445f
c45 142 0 0.115385f
c46 138 0 0.114444f
c47 134 0 0.115385f
c48 130 0 0.114445f
c49 126 0 0.115385f
c50 122 0 0.114444f
c51 118 0 0.110158f
c52 114 0 0.0944774f
c53 110 0 0.151892f
c54 105 0 0.269984f
c55 99 0 0.119109f
c56 88 0 1.50685f
c57 86 0 0.038493f
c58 84 0 0.0331473f
c59 83 0 0.876767f
c60 79 0 0.023123f
c61 78 0 0.275471f
c62 77 0 0.298843f
c63 75 0 0.158211f
c64 74 0 0.128658f
c65 54 0 0.0133833f
c66 53 0 0.160263f
c67 51 0 0.117859f
c68 50 0 0.0133833f
c69 49 0 0.160263f
c70 47 0 0.101677f
c71 46 0 0.0133833f
c72 45 0 0.160263f
c73 43 0 0.11817f
c74 42 0 0.0133833f
c75 41 0 0.160263f
c76 39 0 0.101677f
c77 38 0 0.0133833f
c78 37 0 0.160263f
c79 35 0 0.11817f
c80 34 0 0.0133833f
c81 33 0 0.160263f
c82 31 0 0.101677f
c83 30 0 0.0133833f
c84 29 0 0.160263f
c85 27 0 0.11817f
c86 26 0 0.0133833f
c87 24 0 0.0879361f
c88 21 0 0.378001f
c89 20 0 0.253621f
c90 18 0 0.265955f
c91 16 0 0.265955f
c92 14 0 0.265955f
c93 12 0 0.265955f
c94 10 0 0.265955f
c95 8 0 0.265955f
c96 6 0 0.273293f
c97 4 0 0.0323383f
c98 3 0 0.33714f
r99 280 345 8
r100 279 280 13.2552
r101 276 279 6.03191
r102 272 341 8
r103 271 274 6.03191
r104 271 272 13.2552
r105 268 338 8
r106 267 268 13.2552
r107 264 267 6.03191
r108 260 334 8
r109 259 262 6.03191
r110 259 260 13.2552
r111 256 331 8
r112 255 256 13.2552
r113 252 255 6.03191
r114 248 327 8
r115 247 250 6.03191
r116 247 248 13.2552
r117 244 324 8
r118 243 244 13.2552
r119 240 243 6.03191
r120 236 320 8
r121 235 238 6.03191
r122 235 236 13.2552
r123 232 317 8
r124 231 232 13.2552
r125 228 231 6.03191
r126 224 313 8
r127 223 226 6.03191
r128 223 224 13.2552
r129 220 310 8
r130 219 220 13.2552
r131 216 219 6.03191
r132 212 306 8
r133 211 214 6.03191
r134 211 212 13.2552
r135 208 303 8
r136 207 208 13.2552
r137 204 207 6.03191
r138 200 299 8
r139 199 202 6.03191
r140 199 200 13.2552
r141 196 296 8
r142 195 196 13.2552
r143 192 195 6.05106
r144 188 292 8
r145 187 190 6.01277
r146 187 188 13.2552
r147 182 289 8
r148 181 184 6.20426
r149 181 182 13.2552
r150 176 276 4.73303
r151 176 178 23.5
r152 172 274 4.73303
r153 172 174 23.5
r154 168 264 4.73303
r155 168 170 23.5
r156 164 262 4.73303
r157 164 166 23.5
r158 160 252 4.73303
r159 160 162 23.5
r160 156 250 4.73303
r161 156 158 23.5
r162 152 240 4.73303
r163 152 154 23.5
r164 148 238 4.73303
r165 148 150 23.5
r166 144 228 4.73303
r167 144 146 23.5
r168 140 226 4.73303
r169 140 142 23.5
r170 136 216 4.73303
r171 136 138 23.5
r172 132 214 4.73303
r173 132 134 23.5
r174 128 204 4.73303
r175 128 130 23.5
r176 124 202 4.73303
r177 124 126 23.5
r178 120 192 4.73303
r179 120 122 23.5
r180 116 190 4.73303
r181 116 118 23.5
r182 112 184 4.73303
r183 112 114 25.25
r184 108 184 4.73303
r185 108 110 51.25
r186 105 106 13.2552
r187 102 105 10.6302
r188 98 99 16.3327
r189 96 98 4.88298
r190 94 284 0.100513
r191 93 94 5.44423
r192 91 93 1.53
r193 88 89 4
r194 86 88 3.09686
r195 84 284 2.66667
r196 83 84 8
r197 81 86 0.0363174
r198 81 83 4.0586
r199 78 284 0.0653333
r200 78 79 0.0296412
r201 77 106 0.172667
r202 76 79 0.0296412
r203 75 99 0.0365897
r204 75 76 0.211795
r205 74 79 0.00770322
r206 73 77 0.0394653
r207 73 74 0.166923
r208 53 338 0.268864
r209 53 54 0.0217198
r210 52 345 0.105379
r211 52 54 0.0217198
r212 51 341 0.1391
r213 49 331 0.268864
r214 49 50 0.0217198
r215 48 338 0.105379
r216 48 50 0.0217198
r217 47 334 0.1391
r218 45 324 0.268864
r219 45 46 0.0217198
r220 44 331 0.105379
r221 44 46 0.0217198
r222 43 327 0.1391
r223 41 317 0.268864
r224 41 42 0.0217198
r225 40 324 0.105379
r226 40 42 0.0217198
r227 39 320 0.1391
r228 37 310 0.268864
r229 37 38 0.0217198
r230 36 317 0.105379
r231 36 38 0.0217198
r232 35 313 0.1391
r233 33 303 0.268864
r234 33 34 0.0217198
r235 32 310 0.105379
r236 32 34 0.0217198
r237 31 306 0.1391
r238 29 296 0.268667
r239 29 30 0.0217198
r240 28 303 0.105379
r241 28 30 0.0217198
r242 27 299 0.1391
r243 25 296 0.105576
r244 25 26 0.0217198
r245 24 292 0.13884
r246 23 289 1.56191
r247 22 289 0.261912
r248 21 89 0.340561
r249 21 22 0.0363279
r250 20 54 0.0125679
r251 19 51 0.0363174
r252 19 20 0.7124
r253 18 50 0.0125679
r254 17 47 0.0363174
r255 17 18 0.7124
r256 16 46 0.0125679
r257 15 43 0.0363174
r258 15 16 0.7124
r259 14 42 0.0125679
r260 13 39 0.0363174
r261 13 14 0.7124
r262 12 38 0.0125679
r263 11 35 0.0363174
r264 11 12 0.7124
r265 10 34 0.0125679
r266 9 31 0.0363174
r267 9 10 0.7124
r268 8 30 0.0125679
r269 7 27 0.0363174
r270 7 8 0.7124
r271 6 26 0.0125679
r272 5 24 0.0363174
r273 5 6 0.7124
r274 4 23 0.0363279
r275 3 26 0.0217198
r276 3 4 0.697273
.ends

.subckt PM_ROM_MACRO%NET115 51 56 63 67 69 77 81 85 89 93 97 101 105
c0 161 0 0.978862f
c1 155 0 0.98004f
c2 149 0 0.98004f
c3 143 0 0.980039f
c4 132 0 0.109581f
c5 131 0 0.103552f
c6 130 0 0.159226f
c7 127 0 0.109581f
c8 126 0 0.103552f
c9 125 0 0.161138f
c10 122 0 0.109581f
c11 121 0 0.103552f
c12 120 0 0.161138f
c13 117 0 0.109581f
c14 116 0 0.103549f
c15 115 0 0.161141f
c16 111 0 0.107874f
c17 109 0 0.162111f
c18 105 0 0.119398f
c19 101 0 0.119561f
c20 97 0 0.119501f
c21 93 0 0.119534f
c22 72 0 0.269984f
c23 65 0 0.0890291f
c24 63 0 0.148519f
c25 59 0 0.118248f
c26 49 0 0.0175913f
c27 48 0 6.03291f
c28 44 0 0.69426f
c29 41 0 0.488938f
c30 38 0 0.0207196f
c31 36 0 0.275584f
c32 35 0 0.300464f
c33 33 0 0.155007f
c34 32 0 0.128514f
c35 15 0 5.82386f
r36 130 161 8
r37 129 132 8.05107
r38 129 131 8.08937
r39 129 130 13.2552
r40 125 155 8
r41 124 127 8.05107
r42 124 126 8.08937
r43 124 125 13.2552
r44 120 149 8
r45 119 122 8.05107
r46 119 121 8.08937
r47 119 120 13.2552
r48 115 143 8
r49 114 117 8.05107
r50 114 116 8.08937
r51 114 115 13.2552
r52 108 111 6.20426
r53 108 109 13.2552
r54 105 132 23.75
r55 101 127 23.75
r56 97 122 23.75
r57 93 117 23.75
r58 89 131 22.75
r59 85 126 22.75
r60 81 121 22.75
r61 77 116 22.75
r62 72 73 13.2552
r63 69 72 10.6302
r64 65 111 4.73303
r65 65 67 22.25
r66 61 111 4.73303
r67 61 63 50.75
r68 58 59 16.3327
r69 56 58 4.88298
r70 53 54 5.44423
r71 51 53 1.53
r72 48 49 8
r73 46 48 13.5174
r74 44 109 8
r75 43 44 8
r76 41 46 0.0363174
r77 41 43 1.16324
r78 38 49 2.66667
r79 36 54 0.165846
r80 36 38 0.0296412
r81 35 73 0.172667
r82 34 38 0.0296412
r83 33 59 0.0365897
r84 33 34 0.211795
r85 32 38 0.00770322
r86 31 35 0.0394653
r87 31 32 0.166923
r88 29 161 0.9334
r89 28 29 8
r90 26 155 0.9334
r91 25 28 1.32821
r92 25 26 8
r93 23 149 0.9334
r94 22 25 1.32821
r95 22 23 8
r96 20 143 0.9334
r97 19 22 1.32821
r98 19 20 8
r99 16 44 0.370833
r100 15 19 0.472051
r101 15 16 4
.ends

.subckt PM_ROM_MACRO%NET90 54 59 66 70 72 80 84 88 92 96 100 104 108
c0 164 0 1.12643f
c1 158 0 1.12643f
c2 152 0 1.12643f
c3 146 0 1.12643f
c4 135 0 0.109082f
c5 134 0 0.103659f
c6 133 0 0.15397f
c7 130 0 0.109082f
c8 129 0 0.103659f
c9 128 0 0.15397f
c10 125 0 0.109082f
c11 124 0 0.103659f
c12 123 0 0.15397f
c13 120 0 0.109082f
c14 119 0 0.103624f
c15 118 0 0.153977f
c16 114 0 0.11213f
c17 112 0 0.161935f
c18 108 0 0.121081f
c19 104 0 0.120529f
c20 100 0 0.120781f
c21 96 0 0.121358f
c22 75 0 0.270468f
c23 68 0 0.0904088f
c24 66 0 0.16348f
c25 62 0 0.118248f
c26 52 0 0.0212714f
c27 51 0 7.21212f
c28 48 0 0.0338884f
c29 47 0 1.12184f
c30 45 0 0.681567f
c31 44 0 0.0419012f
c32 40 0 0.0283575f
c33 39 0 0.275584f
c34 38 0 0.301475f
c35 33 0 0.153877f
c36 32 0 0.131595f
c37 15 0 5.84993f
r38 133 164 8
r39 132 135 8.05107
r40 132 134 8.08937
r41 132 133 13.2552
r42 128 158 8
r43 127 130 8.05107
r44 127 129 8.08937
r45 127 128 13.2552
r46 123 152 8
r47 122 125 8.05107
r48 122 124 8.08937
r49 122 123 13.2552
r50 118 146 8
r51 117 120 8.05107
r52 117 119 8.08937
r53 117 118 13.2552
r54 111 114 6.20426
r55 111 112 13.2552
r56 108 135 23.75
r57 104 130 23.75
r58 100 125 23.75
r59 96 120 23.75
r60 92 134 22.75
r61 88 129 22.75
r62 84 124 22.75
r63 80 119 22.75
r64 75 76 13.2552
r65 72 75 10.6302
r66 68 114 4.73303
r67 68 70 22.25
r68 64 114 4.73303
r69 64 66 50.75
r70 61 62 16.3327
r71 59 61 4.88298
r72 56 57 5.44423
r73 54 56 1.53
r74 51 52 8
r75 49 51 12.0419
r76 47 49 0.0363174
r77 47 48 1.6978
r78 45 112 8
r79 44 45 8
r80 42 48 0.0363174
r81 42 44 0.234
r82 39 57 0.165846
r83 39 40 0.0296412
r84 38 76 0.172667
r85 36 52 2.66667
r86 34 40 0.0296412
r87 34 36 0.123128
r88 33 62 0.0365897
r89 33 36 0.0886667
r90 32 40 0.00770322
r91 31 38 0.0394653
r92 31 32 0.166923
r93 29 164 1.313
r94 28 29 8
r95 26 158 1.313
r96 25 28 0.664103
r97 25 26 8
r98 23 152 1.313
r99 22 25 1.99231
r100 22 23 8
r101 20 146 1.313
r102 19 22 0.664103
r103 19 20 8
r104 16 45 0.370833
r105 15 19 0.342821
r106 15 16 4
.ends

.subckt PM_ROM_MACRO%NET110 54 59 66 70 72 80 84 88 92 96 100 104 108
c0 164 0 0.896092f
c1 158 0 0.896092f
c2 152 0 0.896092f
c3 146 0 0.939479f
c4 135 0 0.0941768f
c5 134 0 0.0942559f
c6 133 0 0.152165f
c7 130 0 0.0941768f
c8 129 0 0.0942559f
c9 128 0 0.152165f
c10 125 0 0.0941768f
c11 124 0 0.0942559f
c12 123 0 0.152165f
c13 120 0 0.0912164f
c14 119 0 0.0920527f
c15 118 0 0.134873f
c16 114 0 0.107171f
c17 112 0 0.137692f
c18 108 0 0.107276f
c19 104 0 0.106922f
c20 100 0 0.107322f
c21 96 0 0.102191f
c22 75 0 0.265724f
c23 68 0 0.0869409f
c24 66 0 0.147454f
c25 62 0 0.122942f
c26 52 0 0.0314679f
c27 51 0 4.14679f
c28 47 0 0.977035f
c29 45 0 0.440228f
c30 44 0 0.0406798f
c31 40 0 0.0547834f
c32 39 0 0.306126f
c33 38 0 0.303409f
c34 33 0 0.205113f
c35 32 0 0.136904f
c36 15 0 4.44271f
r37 133 164 8
r38 132 135 8.05107
r39 132 134 8.08937
r40 132 133 13.2552
r41 128 158 8
r42 127 130 8.05107
r43 127 129 8.08937
r44 127 128 13.2552
r45 123 152 8
r46 122 125 8.05107
r47 122 124 8.08937
r48 122 123 13.2552
r49 118 146 8
r50 117 120 8.05107
r51 117 119 8.08937
r52 117 118 13.2552
r53 111 114 6.20426
r54 111 112 13.2552
r55 108 135 23.75
r56 104 130 23.75
r57 100 125 23.75
r58 96 120 23.75
r59 92 134 22.75
r60 88 129 22.75
r61 84 124 22.75
r62 80 119 22.75
r63 75 76 13.2552
r64 72 75 10.6302
r65 68 114 4.73303
r66 68 70 22.25
r67 64 114 4.73303
r68 64 66 50.75
r69 61 62 16.3327
r70 59 61 4.88298
r71 56 57 5.44423
r72 54 56 1.53
r73 51 52 8
r74 49 51 10.4429
r75 47 49 0.0363174
r76 47 48 2.2646
r77 45 112 8
r78 44 45 8
r79 42 48 0.0363174
r80 42 44 0.377
r81 39 57 0.165846
r82 39 40 0.0296412
r83 38 76 0.172667
r84 37 52 0.1352
r85 36 37 2.66667
r86 34 40 0.0296412
r87 34 36 0.159026
r88 33 62 0.0365897
r89 33 36 0.0527692
r90 32 40 0.00770322
r91 31 38 0.0394653
r92 31 32 0.166923
r93 29 164 1.6926
r94 28 29 8
r95 26 158 1.6926
r96 25 28 0.664103
r97 25 26 8
r98 23 152 1.6926
r99 22 25 0.664103
r100 22 23 8
r101 20 146 1.6926
r102 19 22 0.664103
r103 19 20 8
r104 16 45 0.370833
r105 15 19 0.21359
r106 15 16 4
.ends

.subckt PM_ROM_MACRO%NET0207 28 33 38 45 49
c0 64 0 0.286493f
c1 55 0 0.154503f
c2 51 0 0.105066f
c3 49 0 0.139651f
c4 43 0 0.148758f
c5 41 0 0.193267f
c6 36 0 0.167221f
c7 25 0 0.215794f
c8 23 0 0.0155154f
c9 22 0 0.117725f
c10 19 0 0.0455369f
c11 16 0 0.805748f
c12 14 0 0.0721983f
c13 13 0 0.284145f
c14 7 0 0.302539f
c15 5 0 0.0653928f
r16 63 64 4
r17 54 55 13.2552
r18 51 54 6.24255
r19 47 51 4.73303
r20 47 49 41.5
r21 43 51 4.73303
r22 43 45 51.75
r23 40 41 16.3327
r24 38 40 4.572
r25 35 36 16.3327
r26 33 35 3.072
r27 31 63 0.0502564
r28 30 31 5.44423
r29 28 30 1.524
r30 26 64 0.555982
r31 25 26 8
r32 23 25 0.503982
r33 21 23 0.0364689
r34 21 22 0.5187
r35 18 19 4
r36 16 22 0.0364246
r37 16 18 1.91904
r38 13 31 0.191872
r39 13 14 0.0345192
r40 12 41 0.151846
r41 12 14 0.0345192
r42 11 55 0.0884681
r43 11 14 0.00390227
r44 10 36 0.132844
r45 7 19 2.66667
r46 5 10 0.0421501
r47 5 7 0.425345
.ends

.subckt PM_ROM_MACRO%XI45/NET258 101 106 107 111 116 123 126 129 132 135 138 141
+ 144 147 150 153 156 159 162 165 168
c0 348 0 0.353731f
c1 344 0 0.35223f
c2 340 0 0.353731f
c3 336 0 0.35223f
c4 332 0 0.353731f
c5 328 0 0.35223f
c6 324 0 0.353731f
c7 320 0 0.354986f
c8 316 0 0.173357f
c9 311 0 0.175791f
c10 306 0 0.172789f
c11 301 0 0.175222f
c12 296 0 0.172789f
c13 291 0 0.175222f
c14 286 0 0.172789f
c15 281 0 0.179463f
c16 276 0 0.0566678f
c17 268 0 0.137486f
c18 263 0 0.152316f
c19 262 0 0.141051f
c20 257 0 0.152204f
c21 256 0 0.140321f
c22 251 0 0.152316f
c23 250 0 0.141051f
c24 245 0 0.152204f
c25 244 0 0.140321f
c26 239 0 0.152316f
c27 238 0 0.141051f
c28 233 0 0.152204f
c29 232 0 0.140321f
c30 227 0 0.152316f
c31 226 0 0.141051f
c32 221 0 0.152169f
c33 220 0 0.139435f
c34 214 0 0.158831f
c35 208 0 0.158273f
c36 202 0 0.158831f
c37 196 0 0.158273f
c38 190 0 0.158831f
c39 184 0 0.158273f
c40 178 0 0.158831f
c41 172 0 0.157823f
c42 166 0 0.0971977f
c43 163 0 0.0936031f
c44 160 0 0.0971977f
c45 157 0 0.0936031f
c46 154 0 0.0971977f
c47 151 0 0.0936031f
c48 148 0 0.0971977f
c49 145 0 0.0923686f
c50 142 0 0.079096f
c51 139 0 0.074637f
c52 136 0 0.079096f
c53 133 0 0.074637f
c54 130 0 0.079096f
c55 127 0 0.074637f
c56 124 0 0.079096f
c57 121 0 0.0729743f
c58 119 0 0.068756f
c59 114 0 0.0953266f
c60 110 0 0.156815f
c61 104 0 0.169503f
c62 98 0 0.620568f
c63 94 0 0.0260021f
c64 91 0 0.424904f
c65 65 0 21.4125f
c66 62 0 0.122976f
c67 41 0 0.0503336f
c68 40 0 1.26587f
c69 39 0 0.0503336f
c70 38 0 1.15719f
c71 37 0 0.0503336f
c72 36 0 1.20543f
c73 35 0 0.0503336f
c74 34 0 1.12008f
c75 33 0 0.0503336f
c76 32 0 1.20543f
c77 31 0 0.0503336f
c78 30 0 1.12008f
c79 29 0 0.0503336f
c80 28 0 1.20543f
c81 27 0 0.0503336f
c82 26 0 1.37545f
c83 25 0 0.0247897f
c84 23 0 0.0247897f
c85 21 0 0.0247897f
c86 19 0 0.0247897f
c87 17 0 0.0247897f
c88 15 0 0.0247897f
c89 13 0 0.0247897f
c90 11 0 0.0247897f
r91 316 317 8
r92 311 312 8
r93 306 307 8
r94 301 302 8
r95 296 297 8
r96 291 292 8
r97 286 287 8
r98 281 282 8
r99 276 352 0.175303
r100 272 351 0.0334849
r101 268 272 0.283636
r102 263 348 8
r103 262 263 13.2552
r104 259 262 6.24255
r105 257 344 8
r106 256 257 13.2552
r107 253 256 6.24255
r108 251 340 8
r109 250 251 13.2552
r110 247 250 6.24255
r111 245 336 8
r112 244 245 13.2552
r113 241 244 6.24255
r114 239 332 8
r115 238 239 13.2552
r116 235 238 6.24255
r117 233 328 8
r118 232 233 13.2552
r119 229 232 6.24255
r120 227 324 8
r121 226 227 13.2552
r122 223 226 6.24255
r123 221 320 8
r124 220 221 13.2552
r125 217 220 6.24255
r126 215 316 0.1596
r127 214 215 13.2552
r128 211 214 6.24255
r129 209 311 0.1596
r130 208 209 13.2552
r131 205 208 6.24255
r132 203 306 0.1596
r133 202 203 13.2552
r134 199 202 6.24255
r135 197 301 0.1596
r136 196 197 13.2552
r137 193 196 6.24255
r138 191 296 0.1596
r139 190 191 13.2552
r140 187 190 6.24255
r141 185 291 0.1596
r142 184 185 13.2552
r143 181 184 6.24255
r144 179 286 0.1596
r145 178 179 13.2552
r146 175 178 6.24255
r147 173 281 0.1596
r148 172 173 13.2552
r149 169 172 6.24255
r150 166 259 4.73303
r151 166 168 16.75
r152 163 253 4.73303
r153 163 165 16.75
r154 160 247 4.73303
r155 160 162 16.75
r156 157 241 4.73303
r157 157 159 16.75
r158 154 235 4.73303
r159 154 156 16.75
r160 151 229 4.73303
r161 151 153 16.75
r162 148 223 4.73303
r163 148 150 16.75
r164 145 217 4.73303
r165 145 147 16.75
r166 142 211 4.73303
r167 142 144 16.75
r168 139 205 4.73303
r169 139 141 16.75
r170 136 199 4.73303
r171 136 138 16.75
r172 133 193 4.73303
r173 133 135 16.75
r174 130 187 4.73303
r175 130 132 16.75
r176 127 181 4.73303
r177 127 129 16.75
r178 124 175 4.73303
r179 124 126 16.75
r180 121 169 4.73303
r181 121 123 16.75
r182 119 355 0.0323077
r183 118 119 16.3327
r184 116 118 4.88298
r185 114 365 0.0323077
r186 114 276 8
r187 113 114 16.3327
r188 111 113 4.88298
r189 110 272 8
r190 109 110 16.3327
r191 107 109 4.88298
r192 106 109 5.45745
r193 104 268 8
r194 103 104 16.3327
r195 101 103 4.88298
r196 99 317 1.4768
r197 98 99 8
r198 96 98 1.1869
r199 94 352 0.0308932
r200 94 351 0.0308932
r201 93 94 8
r202 91 96 0.0376451
r203 91 93 0.970171
r204 87 99 8
r205 85 312 1.4768
r206 84 87 3.4384
r207 84 85 8
r208 82 307 1.4768
r209 81 84 3.556
r210 81 82 8
r211 79 302 1.4768
r212 78 81 3.4384
r213 78 79 8
r214 76 297 1.4768
r215 75 78 3.556
r216 75 76 8
r217 73 292 1.4768
r218 72 75 3.4384
r219 72 73 8
r220 70 287 1.4768
r221 69 72 3.556
r222 69 70 8
r223 66 282 1.4768
r224 65 69 3.4384
r225 65 66 8
r226 63 355 0.00411102
r227 62 365 0.00411102
r228 62 63 0.181282
r229 41 348 0.52676
r230 40 317 0.36764
r231 39 344 0.52676
r232 38 312 0.36764
r233 37 340 0.52676
r234 36 307 0.36764
r235 35 336 0.52676
r236 34 302 0.36764
r237 33 332 0.52676
r238 32 297 0.36764
r239 31 328 0.52676
r240 30 292 0.36764
r241 29 324 0.52676
r242 28 287 0.36764
r243 27 320 0.52676
r244 26 282 0.36764
r245 25 41 0.0363174
r246 24 40 0.0363174
r247 24 25 0.0858
r248 23 39 0.0363174
r249 22 38 0.0363174
r250 22 23 0.0858
r251 21 37 0.0363174
r252 20 36 0.0363174
r253 20 21 0.0858
r254 19 35 0.0363174
r255 18 34 0.0363174
r256 18 19 0.0858
r257 17 33 0.0363174
r258 16 32 0.0363174
r259 16 17 0.0858
r260 15 31 0.0363174
r261 14 30 0.0363174
r262 14 15 0.0858
r263 13 29 0.0363174
r264 12 28 0.0363174
r265 12 13 0.0858
r266 11 27 0.0363174
r267 10 26 0.0363174
r268 10 11 0.0858
.ends

.subckt PM_ROM_MACRO%NET0215 30 35 40
c0 43 0 0.181538f
c1 42 0 0.00129253f
c2 38 0 0.0774814f
c3 27 0 1.15734f
c4 24 0 0.285877f
c5 20 0 0.0379958f
c6 19 0 0.217765f
c7 16 0 0.052531f
c8 13 0 0.116241f
c9 10 0 0.328748f
c10 7 0 0.189893f
c11 5 0 0.0628921f
r12 42 43 16.3327
r13 40 42 4.572
r14 37 38 16.3327
r15 35 37 3.048
r16 32 33 5.44423
r17 30 32 1.524
r18 27 28 8
r19 23 27 3.34549
r20 23 24 8
r21 19 33 0.229744
r22 19 20 0.0201846
r23 18 43 0.153462
r24 18 20 0.0201846
r25 17 38 0.0600444
r26 16 20 0.0171158
r27 15 16 0.1526
r28 13 28 0.1534