* File: ROM_MACRO.pex.spi
* Created: Mon Jan 17 05:42:50 2022
* Program "Calibre xRC"
* Version "v2021.1_33.19"
* 
.include "ROM_MACRO.pex.spi.pex"
.subckt ROM_MACRO  VSS CLK VDD VREF A<7> A<6> A<2> A<1> A<0> DOUT<1> A<8> A<5>
+ A<4> A<3> DOUT<0>
* 
* DOUT<0>	DOUT<0>
* A<3>	A<3>
* A<4>	A<4>
* A<5>	A<5>
* A<8>	A<8>
* DOUT<1>	DOUT<1>
* A<0>	A<0>
* A<1>	A<1>
* A<2>	A<2>
* A<6>	A<6>
* A<7>	A<7>
* VREF	VREF
* VDD	VDD
* CLK	CLK
* VSS	VSS
mXI45/XI0/XI8/MM0 N_XI45/XI0/NET96_XI45/XI0/XI8/MM0_d
+ N_NET100_XI45/XI0/XI8/MM0_g N_VSS_XI45/XI0/XI8/MM0_s N_VSS_XI45/XI0/XI8/MM0_b
+ N_18 L=1.8e-07 W=5e-07 AD=2.45e-13 AS=2.45e-13 PD=1.48e-06 PS=1.48e-06
mXI45/XI1/XI8/MM0 N_XI45/XI1/NET96_XI45/XI1/XI8/MM0_d
+ N_NET110_XI45/XI1/XI8/MM0_g N_VSS_XI45/XI1/XI8/MM0_s N_VSS_XI45/XI0/XI8/MM0_b
+ N_18 L=1.8e-07 W=5e-07 AD=2.45e-13 AS=2.45e-13 PD=1.48e-06 PS=1.48e-06
mXI46/MM3 N_NET0208_XI46/MM3_d N_NET0265_XI46/MM3_g N_DOUT<1>_XI46/MM3_s
+ N_VSS_XI45/XI0/XI8/MM0_b N_18 L=1.8e-07 W=7.5e-07 AD=3.675e-13 AS=1.92e-13
+ PD=1.73e-06 PS=8.58e-07
mXI46/MM1 N_DOUT<1>_XI46/MM1_d N_NET0176_XI46/MM1_g N_VSS_XI46/MM1_s
+ N_VSS_XI45/XI0/XI8/MM0_b N_18 L=1.8e-07 W=5e-07 AD=1.28e-13 AS=1.8e-13
+ PD=5.72e-07 PS=7.2e-07
mXI46/MM2 N_NET0176_XI46/MM2_d N_DOUT<1>_XI46/MM2_g N_VSS_XI46/MM2_s
+ N_VSS_XI45/XI0/XI8/MM0_b N_18 L=1.8e-07 W=5e-07 AD=1.28e-13 AS=1.8e-13
+ PD=5.72e-07 PS=7.2e-07
mXI46/MM0 N_NET0207_XI46/MM0_d N_NET0265_XI46/MM0_g N_NET0176_XI46/MM0_s
+ N_VSS_XI45/XI0/XI8/MM0_b N_18 L=1.8e-07 W=7.5e-07 AD=3.675e-13 AS=1.92e-13
+ PD=1.73e-06 PS=8.58e-07
mXI10/MM7 N_XI10/NET13_XI10/MM7_d N_A<7>_XI10/MM7_g N_VSS_XI10/MM7_s
+ N_VSS_XI45/XI0/XI8/MM0_b N_18 L=1.8e-07 W=4.7e-07 AD=2.303e-13 AS=2.303e-13
+ PD=1.45e-06 PS=1.45e-06
mXI10/MM8 N_XI10/NET9_XI10/MM8_d N_CLK_XI10/MM8_g N_VSS_XI10/MM8_s
+ N_VSS_XI45/XI0/XI8/MM0_b N_18 L=1.8e-07 W=4.7e-07 AD=5.875e-14 AS=2.303e-13
+ PD=2.5e-07 PS=1.45e-06
mXI10/MM5 N_XI10/NET21_XI10/MM5_d N_XI10/NET13_XI10/MM5_g N_XI10/NET9_XI10/MM5_s
+ N_VSS_XI45/XI0/XI8/MM0_b N_18 L=1.8e-07 W=4.7e-07 AD=2.303e-13 AS=5.875e-14
+ PD=1.45e-06 PS=2.5e-07
mXI10/MM9 N_XI10/NET5_XI10/MM9_d N_XI10/NET21_XI10/MM9_g N_VSS_XI10/MM9_s
+ N_VSS_XI45/XI0/XI8/MM0_b N_18 L=1.8e-07 W=4.7e-07 AD=5.875e-14 AS=2.303e-13
+ PD=2.5e-07 PS=1.45e-06
mXI10/MM6 N_XI10/NET15_XI10/MM6_d N_CLK_XI10/MM6_g N_XI10/NET5_XI10/MM6_s
+ N_VSS_XI45/XI0/XI8/MM0_b N_18 L=1.8e-07 W=4.7e-07 AD=2.303e-13 AS=5.875e-14
+ PD=1.45e-06 PS=2.5e-07
mXI10/MM10 N_NET125_XI10/MM10_d N_XI10/NET15_XI10/MM10_g N_VSS_XI10/MM10_s
+ N_VSS_XI45/XI0/XI8/MM0_b N_18 L=1.8e-07 W=4.7e-07 AD=2.303e-13 AS=2.303e-13
+ PD=1.45e-06 PS=1.45e-06
mXI18/MM7 N_XI18/NET13_XI18/MM7_d N_A<6>_XI18/MM7_g N_VSS_XI18/MM7_s
+ N_VSS_XI45/XI0/XI8/MM0_b N_18 L=1.8e-07 W=4.7e-07 AD=2.303e-13 AS=2.303e-13
+ PD=1.45e-06 PS=1.45e-06
mXI18/MM8 N_XI18/NET9_XI18/MM8_d N_CLK_XI18/MM8_g N_VSS_XI18/MM8_s
+ N_VSS_XI45/XI0/XI8/MM0_b N_18 L=1.8e-07 W=4.7e-07 AD=5.875e-14 AS=2.303e-13
+ PD=2.5e-07 PS=1.45e-06
mXI18/MM5 N_XI18/NET21_XI18/MM5_d N_XI18/NET13_XI18/MM5_g N_XI18/NET9_XI18/MM5_s
+ N_VSS_XI45/XI0/XI8/MM0_b N_18 L=1.8e-07 W=4.7e-07 AD=2.303e-13 AS=5.875e-14
+ PD=1.45e-06 PS=2.5e-07
mXI18/MM9 N_XI18/NET5_XI18/MM9_d N_XI18/NET21_XI18/MM9_g N_VSS_XI18/MM9_s
+ N_VSS_XI45/XI0/XI8/MM0_b N_18 L=1.8e-07 W=4.7e-07 AD=5.875e-14 AS=2.303e-13
+ PD=2.5e-07 PS=1.45e-06
mXI18/MM6 N_XI18/NET15_XI18/MM6_d N_CLK_XI18/MM6_g N_XI18/NET5_XI18/MM6_s
+ N_VSS_XI45/XI0/XI8/MM0_b N_18 L=1.8e-07 W=4.7e-07 AD=2.303e-13 AS=5.875e-14
+ PD=1.45e-06 PS=2.5e-07
mXI18/MM10 N_NET85_XI18/MM10_d N_XI18/NET15_XI18/MM10_g N_VSS_XI18/MM10_s
+ N_VSS_XI45/XI0/XI8/MM0_b N_18 L=1.8e-07 W=4.7e-07 AD=2.303e-13 AS=2.303e-13
+ PD=1.45e-06 PS=1.45e-06
mXI16/MM7 N_XI16/NET13_XI16/MM7_d N_A<2>_XI16/MM7_g N_VSS_XI16/MM7_s
+ N_VSS_XI45/XI0/XI8/MM0_b N_18 L=1.8e-07 W=4.7e-07 AD=2.303e-13 AS=2.303e-13
+ PD=1.45e-06 PS=1.45e-06
mXI16/MM8 N_XI16/NET9_XI16/MM8_d N_CLK_XI16/MM8_g N_VSS_XI16/MM8_s
+ N_VSS_XI45/XI0/XI8/MM0_b N_18 L=1.8e-07 W=4.7e-07 AD=5.875e-14 AS=2.303e-13
+ PD=2.5e-07 PS=1.45e-06
mXI16/MM5 N_XI16/NET21_XI16/MM5_d N_XI16/NET13_XI16/MM5_g N_XI16/NET9_XI16/MM5_s
+ N_VSS_XI45/XI0/XI8/MM0_b N_18 L=1.8e-07 W=4.7e-07 AD=2.303e-13 AS=5.875e-14
+ PD=1.45e-06 PS=2.5e-07
mXI16/MM9 N_XI16/NET5_XI16/MM9_d N_XI16/NET21_XI16/MM9_g N_VSS_XI16/MM9_s
+ N_VSS_XI45/XI0/XI8/MM0_b N_18 L=1.8e-07 W=4.7e-07 AD=5.875e-14 AS=2.303e-13
+ PD=2.5e-07 PS=1.45e-06
mXI16/MM6 N_XI16/NET15_XI16/MM6_d N_CLK_XI16/MM6_g N_XI16/NET5_XI16/MM6_s
+ N_VSS_XI45/XI0/XI8/MM0_b N_18 L=1.8e-07 W=4.7e-07 AD=2.303e-13 AS=5.875e-14
+ PD=1.45e-06 PS=2.5e-07
mXI16/MM10 N_NET95_XI16/MM10_d N_XI16/NET15_XI16/MM10_g N_VSS_XI16/MM10_s
+ N_VSS_XI45/XI0/XI8/MM0_b N_18 L=1.8e-07 W=4.7e-07 AD=2.303e-13 AS=2.303e-13
+ PD=1.45e-06 PS=1.45e-06
mXI14/MM7 N_XI14/NET13_XI14/MM7_d N_A<1>_XI14/MM7_g N_VSS_XI14/MM7_s
+ N_VSS_XI45/XI0/XI8/MM0_b N_18 L=1.8e-07 W=4.7e-07 AD=2.303e-13 AS=2.303e-13
+ PD=1.45e-06 PS=1.45e-06
mXI14/MM8 N_XI14/NET9_XI14/MM8_d N_CLK_XI14/MM8_g N_VSS_XI14/MM8_s
+ N_VSS_XI45/XI0/XI8/MM0_b N_18 L=1.8e-07 W=4.7e-07 AD=5.875e-14 AS=2.303e-13
+ PD=2.5e-07 PS=1.45e-06
mXI14/MM5 N_XI14/NET21_XI14/MM5_d N_XI14/NET13_XI14/MM5_g N_XI14/NET9_XI14/MM5_s
+ N_VSS_XI45/XI0/XI8/MM0_b N_18 L=1.8e-07 W=4.7e-07 AD=2.303e-13 AS=5.875e-14
+ PD=1.45e-06 PS=2.5e-07
mXI14/MM9 N_XI14/NET5_XI14/MM9_d N_XI14/NET21_XI14/MM9_g N_VSS_XI14/MM9_s
+ N_VSS_XI45/XI0/XI8/MM0_b N_18 L=1.8e-07 W=4.7e-07 AD=5.875e-14 AS=2.303e-13
+ PD=2.5e-07 PS=1.45e-06
mXI14/MM6 N_XI14/NET15_XI14/MM6_d N_CLK_XI14/MM6_g N_XI14/NET5_XI14/MM6_s
+ N_VSS_XI45/XI0/XI8/MM0_b N_18 L=1.8e-07 W=4.7e-07 AD=2.303e-13 AS=5.875e-14
+ PD=1.45e-06 PS=2.5e-07
mXI14/MM10 N_NET105_XI14/MM10_d N_XI14/NET15_XI14/MM10_g N_VSS_XI14/MM10_s
+ N_VSS_XI45/XI0/XI8/MM0_b N_18 L=1.8e-07 W=4.7e-07 AD=2.303e-13 AS=2.303e-13
+ PD=1.45e-06 PS=1.45e-06
mXI15/MM7 N_XI15/NET13_XI15/MM7_d N_A<0>_XI15/MM7_g N_VSS_XI15/MM7_s
+ N_VSS_XI45/XI0/XI8/MM0_b N_18 L=1.8e-07 W=4.7e-07 AD=2.303e-13 AS=2.303e-13
+ PD=1.45e-06 PS=1.45e-06
mXI15/MM8 N_XI15/NET9_XI15/MM8_d N_CLK_XI15/MM8_g N_VSS_XI15/MM8_s
+ N_VSS_XI45/XI0/XI8/MM0_b N_18 L=1.8e-07 W=4.7e-07 AD=5.875e-14 AS=2.303e-13
+ PD=2.5e-07 PS=1.45e-06
mXI15/MM5 N_XI15/NET21_XI15/MM5_d N_XI15/NET13_XI15/MM5_g N_XI15/NET9_XI15/MM5_s
+ N_VSS_XI45/XI0/XI8/MM0_b N_18 L=1.8e-07 W=4.7e-07 AD=2.303e-13 AS=5.875e-14
+ PD=1.45e-06 PS=2.5e-07
mXI15/MM9 N_XI15/NET5_XI15/MM9_d N_XI15/NET21_XI15/MM9_g N_VSS_XI15/MM9_s
+ N_VSS_XI45/XI0/XI8/MM0_b N_18 L=1.8e-07 W=4.7e-07 AD=5.875e-14 AS=2.303e-13
+ PD=2.5e-07 PS=1.45e-06
mXI15/MM6 N_XI15/NET15_XI15/MM6_d N_CLK_XI15/MM6_g N_XI15/NET5_XI15/MM6_s
+ N_VSS_XI45/XI0/XI8/MM0_b N_18 L=1.8e-07 W=4.7e-07 AD=2.303e-13 AS=5.875e-14
+ PD=1.45e-06 PS=2.5e-07
mXI15/MM10 N_NET100_XI15/MM10_d N_XI15/NET15_XI15/MM10_g N_VSS_XI15/MM10_s
+ N_VSS_XI45/XI0/XI8/MM0_b N_18 L=1.8e-07 W=4.7e-07 AD=2.303e-13 AS=2.303e-13
+ PD=1.45e-06 PS=1.45e-06
mXI45/XI0/XI9/MM0 N_XI45/XI0/NET92_XI45/XI0/XI9/MM0_d
+ N_NET105_XI45/XI0/XI9/MM0_g N_VSS_XI45/XI0/XI9/MM0_s N_VSS_XI45/XI0/XI8/MM0_b
+ N_18 L=1.8e-07 W=5e-07 AD=2.45e-13 AS=2.45e-13 PD=1.48e-06 PS=1.48e-06
mXI45/XI1/XI9/MM0 N_XI45/XI1/NET92_XI45/XI1/XI9/MM0_d N_NET90_XI45/XI1/XI9/MM0_g
+ N_VSS_XI45/XI1/XI9/MM0_s N_VSS_XI45/XI0/XI8/MM0_b N_18 L=1.8e-07 W=5e-07
+ AD=2.45e-13 AS=2.45e-13 PD=1.48e-06 PS=1.48e-06
mXI45/XI0/XI10/MM0 N_XI45/XI0/NET081_XI45/XI0/XI10/MM0_d
+ N_NET95_XI45/XI0/XI10/MM0_g N_VSS_XI45/XI0/XI10/MM0_s N_VSS_XI45/XI0/XI8/MM0_b
+ N_18 L=1.8e-07 W=5e-07 AD=2.45e-13 AS=2.45e-13 PD=1.48e-06 PS=1.48e-06
mXI45/XI1/XI10/MM0 N_XI45/XI1/NET081_XI45/XI1/XI10/MM0_d
+ N_NET115_XI45/XI1/XI10/MM0_g N_VSS_XI45/XI1/XI10/MM0_s
+ N_VSS_XI45/XI0/XI8/MM0_b N_18 L=1.8e-07 W=5e-07 AD=2.45e-13 AS=2.45e-13
+ PD=1.48e-06 PS=1.48e-06
mXI45/XI0/XI18/MM7 N_XI45/NET272_XI45/XI0/XI18/MM7_d N_NET79_XI45/XI0/XI18/MM7_g
+ N_XI45/XI0/XI18/NET16_XI45/XI0/XI18/MM7_s N_VSS_XI45/XI0/XI8/MM0_b N_18
+ L=1.8e-07 W=4.7e-07 AD=2.303e-13 AS=1.269e-13 PD=1.45e-06 PS=5.4e-07
mXI45/XI0/XI18/MM6 N_XI45/XI0/XI18/NET16_XI45/XI0/XI18/MM6_d
+ N_XI45/XI0/NET081_XI45/XI0/XI18/MM6_g
+ N_XI45/XI0/XI18/NET12_XI45/XI0/XI18/MM6_s N_VSS_XI45/XI0/XI8/MM0_b N_18
+ L=1.8e-07 W=4.7e-07 AD=1.269e-13 AS=1.269e-13 PD=5.4e-07 PS=5.4e-07
mXI45/XI0/XI18/MM5 N_XI45/XI0/XI18/NET12_XI45/XI0/XI18/MM5_d
+ N_XI45/XI0/NET92_XI45/XI0/XI18/MM5_g N_XI45/XI0/XI18/NET8_XI45/XI0/XI18/MM5_s
+ N_VSS_XI45/XI0/XI8/MM0_b N_18 L=1.8e-07 W=4.7e-07 AD=1.269e-13 AS=1.269e-13
+ PD=5.4e-07 PS=5.4e-07
mXI45/XI0/XI18/MM4 N_XI45/XI0/XI18/NET8_XI45/XI0/XI18/MM4_d
+ N_XI45/XI0/NET96_XI45/XI0/XI18/MM4_g N_VSS_XI45/XI0/XI18/MM4_s
+ N_VSS_XI45/XI0/XI8/MM0_b N_18 L=1.8e-07 W=4.7e-07 AD=1.269e-13 AS=2.303e-13
+ PD=5.4e-07 PS=1.45e-06
mXI45/XI0/XI17/MM7 N_XI45/NET273_XI45/XI0/XI17/MM7_d N_NET79_XI45/XI0/XI17/MM7_g
+ N_XI45/XI0/XI17/NET16_XI45/XI0/XI17/MM7_s N_VSS_XI45/XI0/XI8/MM0_b N_18
+ L=1.8e-07 W=4.7e-07 AD=2.303e-13 AS=1.269e-13 PD=1.45e-06 PS=5.4e-07
mXI45/XI0/XI17/MM6 N_XI45/XI0/XI17/NET16_XI45/XI0/XI17/MM6_d
+ N_NET95_XI45/XI0/XI17/MM6_g N_XI45/XI0/XI17/NET12_XI45/XI0/XI17/MM6_s
+ N_VSS_XI45/XI0/XI8/MM0_b N_18 L=1.8e-07 W=4.7e-07 AD=1.269e-13 AS=1.269e-13
+ PD=5.4e-07 PS=5.4e-07
mXI45/XI0/XI17/MM5 N_XI45/XI0/XI17/NET12_XI45/XI0/XI17/MM5_d
+ N_XI45/XI0/NET92_XI45/XI0/XI17/MM5_g N_XI45/XI0/XI17/NET8_XI45/XI0/XI17/MM5_s
+ N_VSS_XI45/XI0/XI8/MM0_b N_18 L=1.8e-07 W=4.7e-07 AD=1.269e-13 AS=1.269e-13
+ PD=5.4e-07 PS=5.4e-07
mXI45/XI0/XI17/MM4 N_XI45/XI0/XI17/NET8_XI45/XI0/XI17/MM4_d
+ N_XI45/XI0/NET96_XI45/XI0/XI17/MM4_g N_VSS_XI45/XI0/XI17/MM4_s
+ N_VSS_XI45/XI0/XI8/MM0_b N_18 L=1.8e-07 W=4.7e-07 AD=1.269e-13 AS=2.303e-13
+ PD=5.4e-07 PS=1.45e-06
mXI45/XI0/XI16/MM7 N_XI45/NET274_XI45/XI0/XI16/MM7_d N_NET79_XI45/XI0/XI16/MM7_g
+ N_XI45/XI0/XI16/NET16_XI45/XI0/XI16/MM7_s N_VSS_XI45/XI0/XI8/MM0_b N_18
+ L=1.8e-07 W=4.7e-07 AD=2.303e-13 AS=1.269e-13 PD=1.45e-06 PS=5.4e-07
mXI45/XI0/XI16/MM6 N_XI45/XI0/XI16/NET16_XI45/XI0/XI16/MM6_d
+ N_XI45/XI0/NET081_XI45/XI0/XI16/MM6_g
+ N_XI45/XI0/XI16/NET12_XI45/XI0/XI16/MM6_s N_VSS_XI45/XI0/XI8/MM0_b N_18
+ L=1.8e-07 W=4.7e-07 AD=1.269e-13 AS=1.269e-13 PD=5.4e-07 PS=5.4e-07
mXI45/XI0/XI16/MM5 N_XI45/XI0/XI16/NET12_XI45/XI0/XI16/MM5_d
+ N_NET105_XI45/XI0/XI16/MM5_g N_XI45/XI0/XI16/NET8_XI45/XI0/XI16/MM5_s
+ N_VSS_XI45/XI0/XI8/MM0_b N_18 L=1.8e-07 W=4.7e-07 AD=1.269e-13 AS=1.269e-13
+ PD=5.4e-07 PS=5.4e-07
mXI45/XI0/XI16/MM4 N_XI45/XI0/XI16/NET8_XI45/XI0/XI16/MM4_d
+ N_XI45/XI0/NET96_XI45/XI0/XI16/MM4_g N_VSS_XI45/XI0/XI16/MM4_s
+ N_VSS_XI45/XI0/XI8/MM0_b N_18 L=1.8e-07 W=4.7e-07 AD=1.269e-13 AS=2.303e-13
+ PD=5.4e-07 PS=1.45e-06
mXI45/XI0/XI15/MM7 N_XI45/NET275_XI45/XI0/XI15/MM7_d N_NET79_XI45/XI0/XI15/MM7_g
+ N_XI45/XI0/XI15/NET16_XI45/XI0/XI15/MM7_s N_VSS_XI45/XI0/XI8/MM0_b N_18
+ L=1.8e-07 W=4.7e-07 AD=2.303e-13 AS=1.269e-13 PD=1.45e-06 PS=5.4e-07
mXI45/XI0/XI15/MM6 N_XI45/XI0/XI15/NET16_XI45/XI0/XI15/MM6_d
+ N_NET95_XI45/XI0/XI15/MM6_g N_XI45/XI0/XI15/NET12_XI45/XI0/XI15/MM6_s
+ N_VSS_XI45/XI0/XI8/MM0_b N_18 L=1.8e-07 W=4.7e-07 AD=1.269e-13 AS=1.269e-13
+ PD=5.4e-07 PS=5.4e-07
mXI45/XI0/XI15/MM5 N_XI45/XI0/XI15/NET12_XI45/XI0/XI15/MM5_d
+ N_NET105_XI45/XI0/XI15/MM5_g N_XI45/XI0/XI15/NET8_XI45/XI0/XI15/MM5_s
+ N_VSS_XI45/XI0/XI8/MM0_b N_18 L=1.8e-07 W=4.7e-07 AD=1.269e-13 AS=1.269e-13
+ PD=5.4e-07 PS=5.4e-07
mXI45/XI0/XI15/MM4 N_XI45/XI0/XI15/NET8_XI45/XI0/XI15/MM4_d
+ N_XI45/XI0/NET96_XI45/XI0/XI15/MM4_g N_VSS_XI45/XI0/XI15/MM4_s
+ N_VSS_XI45/XI0/XI8/MM0_b N_18 L=1.8e-07 W=4.7e-07 AD=1.269e-13 AS=2.303e-13
+ PD=5.4e-07 PS=1.45e-06
mXI45/XI0/XI14/MM7 N_XI45/NET276_XI45/XI0/XI14/MM7_d N_NET79_XI45/XI0/XI14/MM7_g
+ N_XI45/XI0/XI14/NET16_XI45/XI0/XI14/MM7_s N_VSS_XI45/XI0/XI8/MM0_b N_18
+ L=1.8e-07 W=4.7e-07 AD=2.303e-13 AS=1.269e-13 PD=1.45e-06 PS=5.4e-07
mXI45/XI0/XI14/MM6 N_XI45/XI0/XI14/NET16_XI45/XI0/XI14/MM6_d
+ N_XI45/XI0/NET081_XI45/XI0/XI14/MM6_g
+ N_XI45/XI0/XI14/NET12_XI45/XI0/XI14/MM6_s N_VSS_XI45/XI0/XI8/MM0_b N_18
+ L=1.8e-07 W=4.7e-07 AD=1.269e-13 AS=1.269e-13 PD=5.4e-07 PS=5.4e-07
mXI45/XI0/XI14/MM5 N_XI45/XI0/XI14/NET12_XI45/XI0/XI14/MM5_d
+ N_XI45/XI0/NET92_XI45/XI0/XI14/MM5_g N_XI45/XI0/XI14/NET8_XI45/XI0/XI14/MM5_s
+ N_VSS_XI45/XI0/XI8/MM0_b N_18 L=1.8e-07 W=4.7e-07 AD=1.269e-13 AS=1.269e-13
+ PD=5.4e-07 PS=5.4e-07
mXI45/XI0/XI14/MM4 N_XI45/XI0/XI14/NET8_XI45/XI0/XI14/MM4_d
+ N_NET100_XI45/XI0/XI14/MM4_g N_VSS_XI45/XI0/XI14/MM4_s
+ N_VSS_XI45/XI0/XI8/MM0_b N_18 L=1.8e-07 W=4.7e-07 AD=1.269e-13 AS=2.303e-13
+ PD=5.4e-07 PS=1.45e-06
mXI45/XI0/XI13/MM7 N_XI45/NET277_XI45/XI0/XI13/MM7_d N_NET79_XI45/XI0/XI13/MM7_g
+ N_XI45/XI0/XI13/NET16_XI45/XI0/XI13/MM7_s N_VSS_XI45/XI0/XI8/MM0_b N_18
+ L=1.8e-07 W=4.7e-07 AD=2.303e-13 AS=1.269e-13 PD=1.45e-06 PS=5.4e-07
mXI45/XI0/XI13/MM6 N_XI45/XI0/XI13/NET16_XI45/XI0/XI13/MM6_d
+ N_NET95_XI45/XI0/XI13/MM6_g N_XI45/XI0/XI13/NET12_XI45/XI0/XI13/MM6_s
+ N_VSS_XI45/XI0/XI8/MM0_b N_18 L=1.8e-07 W=4.7e-07 AD=1.269e-13 AS=1.269e-13
+ PD=5.4e-07 PS=5.4e-07
mXI45/XI0/XI13/MM5 N_XI45/XI0/XI13/NET12_XI45/XI0/XI13/MM5_d
+ N_XI45/XI0/NET92_XI45/XI0/XI13/MM5_g N_XI45/XI0/XI13/NET8_XI45/XI0/XI13/MM5_s
+ N_VSS_XI45/XI0/XI8/MM0_b N_18 L=1.8e-07 W=4.7e-07 AD=1.269e-13 AS=1.269e-13
+ PD=5.4e-07 PS=5.4e-07
mXI45/XI0/XI13/MM4 N_XI45/XI0/XI13/NET8_XI45/XI0/XI13/MM4_d
+ N_NET100_XI45/XI0/XI13/MM4_g N_VSS_XI45/XI0/XI13/MM4_s
+ N_VSS_XI45/XI0/XI8/MM0_b N_18 L=1.8e-07 W=4.7e-07 AD=1.269e-13 AS=2.303e-13
+ PD=5.4e-07 PS=1.45e-06
mXI45/XI0/XI12/MM7 N_XI45/NET278_XI45/XI0/XI12/MM7_d N_NET79_XI45/XI0/XI12/MM7_g
+ N_XI45/XI0/XI12/NET16_XI45/XI0/XI12/MM7_s N_VSS_XI45/XI0/XI8/MM0_b N_18
+ L=1.8e-07 W=4.7e-07 AD=2.303e-13 AS=1.269e-13 PD=1.45e-06 PS=5.4e-07
mXI45/XI0/XI12/MM6 N_XI45/XI0/XI12/NET16_XI45/XI0/XI12/MM6_d
+ N_XI45/XI0/NET081_XI45/XI0/XI12/MM6_g
+ N_XI45/XI0/XI12/NET12_XI45/XI0/XI12/MM6_s N_VSS_XI45/XI0/XI8/MM0_b N_18
+ L=1.8e-07 W=4.7e-07 AD=1.269e-13 AS=1.269e-13 PD=5.4e-07 PS=5.4e-07
mXI45/XI0/XI12/MM5 N_XI45/XI0/XI12/NET12_XI45/XI0/XI12/MM5_d
+ N_NET105_XI45/XI0/XI12/MM5_g N_XI45/XI0/XI12/NET8_XI45/XI0/XI12/MM5_s
+ N_VSS_XI45/XI0/XI8/MM0_b N_18 L=1.8e-07 W=4.7e-07 AD=1.269e-13 AS=1.269e-13
+ PD=5.4e-07 PS=5.4e-07
mXI45/XI0/XI12/MM4 N_XI45/XI0/XI12/NET8_XI45/XI0/XI12/MM4_d
+ N_NET100_XI45/XI0/XI12/MM4_g N_VSS_XI45/XI0/XI12/MM4_s
+ N_VSS_XI45/XI0/XI8/MM0_b N_18 L=1.8e-07 W=4.7e-07 AD=1.269e-13 AS=2.303e-13
+ PD=5.4e-07 PS=1.45e-06
mXI45/XI0/XI11/MM7 N_XI45/NET266_XI45/XI0/XI11/MM7_d N_NET79_XI45/XI0/XI11/MM7_g
+ N_XI45/XI0/XI11/NET16_XI45/XI0/XI11/MM7_s N_VSS_XI45/XI0/XI8/MM0_b N_18
+ L=1.8e-07 W=4.7e-07 AD=2.303e-13 AS=1.269e-13 PD=1.45e-06 PS=5.4e-07
mXI45/XI0/XI11/MM6 N_XI45/XI0/XI11/NET16_XI45/XI0/XI11/MM6_d
+ N_NET95_XI45/XI0/XI11/MM6_g N_XI45/XI0/XI11/NET12_XI45/XI0/XI11/MM6_s
+ N_VSS_XI45/XI0/XI8/MM0_b N_18 L=1.8e-07 W=4.7e-07 AD=1.269e-13 AS=1.269e-13
+ PD=5.4e-07 PS=5.4e-07
mXI45/XI0/XI11/MM5 N_XI45/XI0/XI11/NET12_XI45/XI0/XI11/MM5_d
+ N_NET105_XI45/XI0/XI11/MM5_g N_XI45/XI0/XI11/NET8_XI45/XI0/XI11/MM5_s
+ N_VSS_XI45/XI0/XI8/MM0_b N_18 L=1.8e-07 W=4.7e-07 AD=1.269e-13 AS=1.269e-13
+ PD=5.4e-07 PS=5.4e-07
mXI45/XI0/XI11/MM4 N_XI45/XI0/XI11/NET8_XI45/XI0/XI11/MM4_d
+ N_NET100_XI45/XI0/XI11/MM4_g N_VSS_XI45/XI0/XI11/MM4_s
+ N_VSS_XI45/XI0/XI8/MM0_b N_18 L=1.8e-07 W=4.7e-07 AD=1.269e-13 AS=2.303e-13
+ PD=5.4e-07 PS=1.45e-06
mXI45/XI1/XI11/MM4 N_XI45/XI1/XI11/NET8_XI45/XI1/XI11/MM4_d
+ N_NET110_XI45/XI1/XI11/MM4_g N_VSS_XI45/XI1/XI11/MM4_s
+ N_VSS_XI45/XI0/XI8/MM0_b N_18 L=1.8e-07 W=4.7e-07 AD=1.269e-13 AS=2.303e-13
+ PD=5.4e-07 PS=1.45e-06
mXI45/XI1/XI11/MM5 N_XI45/XI1/XI11/NET12_XI45/XI1/XI11/MM5_d
+ N_NET90_XI45/XI1/XI11/MM5_g N_XI45/XI1/XI11/NET8_XI45/XI1/XI11/MM5_s
+ N_VSS_XI45/XI0/XI8/MM0_b N_18 L=1.8e-07 W=4.7e-07 AD=1.269e-13 AS=1.269e-13
+ PD=5.4e-07 PS=5.4e-07
mXI45/XI1/XI11/MM6 N_XI45/XI1/XI11/NET16_XI45/XI1/XI11/MM6_d
+ N_NET115_XI45/XI1/XI11/MM6_g N_XI45/XI1/XI11/NET12_XI45/XI1/XI11/MM6_s
+ N_VSS_XI45/XI0/XI8/MM0_b N_18 L=1.8e-07 W=4.7e-07 AD=1.269e-13 AS=1.269e-13
+ PD=5.4e-07 PS=5.4e-07
mXI45/XI1/XI11/MM7 N_XI45/NET252_XI45/XI1/XI11/MM7_d N_NET79_XI45/XI1/XI11/MM7_g
+ N_XI45/XI1/XI11/NET16_XI45/XI1/XI11/MM7_s N_VSS_XI45/XI0/XI8/MM0_b N_18
+ L=1.8e-07 W=4.7e-07 AD=2.303e-13 AS=1.269e-13 PD=1.45e-06 PS=5.4e-07
mXI45/XI1/XI12/MM4 N_XI45/XI1/XI12/NET8_XI45/XI1/XI12/MM4_d
+ N_NET110_XI45/XI1/XI12/MM4_g N_VSS_XI45/XI1/XI12/MM4_s
+ N_VSS_XI45/XI0/XI8/MM0_b N_18 L=1.8e-07 W=4.7e-07 AD=1.269e-13 AS=2.303e-13
+ PD=5.4e-07 PS=1.45e-06
mXI45/XI1/XI12/MM5 N_XI45/XI1/XI12/NET12_XI45/XI1/XI12/MM5_d
+ N_NET90_XI45/XI1/XI12/MM5_g N_XI45/XI1/XI12/NET8_XI45/XI1/XI12/MM5_s
+ N_VSS_XI45/XI0/XI8/MM0_b N_18 L=1.8e-07 W=4.7e-07 AD=1.269e-13 AS=1.269e-13
+ PD=5.4e-07 PS=5.4e-07
mXI45/XI1/XI12/MM6 N_XI45/XI1/XI12/NET16_XI45/XI1/XI12/MM6_d
+ N_XI45/XI1/NET081_XI45/XI1/XI12/MM6_g
+ N_XI45/XI1/XI12/NET12_XI45/XI1/XI12/MM6_s N_VSS_XI45/XI0/XI8/MM0_b N_18
+ L=1.8e-07 W=4.7e-07 AD=1.269e-13 AS=1.269e-13 PD=5.4e-07 PS=5.4e-07
mXI45/XI1/XI12/MM7 N_XI45/NET264_XI45/XI1/XI12/MM7_d N_NET79_XI45/XI1/XI12/MM7_g
+ N_XI45/XI1/XI12/NET16_XI45/XI1/XI12/MM7_s N_VSS_XI45/XI0/XI8/MM0_b N_18
+ L=1.8e-07 W=4.7e-07 AD=2.303e-13 AS=1.269e-13 PD=1.45e-06 PS=5.4e-07
mXI45/XI1/XI13/MM4 N_XI45/XI1/XI13/NET8_XI45/XI1/XI13/MM4_d
+ N_NET110_XI45/XI1/XI13/MM4_g N_VSS_XI45/XI1/XI13/MM4_s
+ N_VSS_XI45/XI0/XI8/MM0_b N_18 L=1.8e-07 W=4.7e-07 AD=1.269e-13 AS=2.303e-13
+ PD=5.4e-07 PS=1.45e-06
mXI45/XI1/XI13/MM5 N_XI45/XI1/XI13/NET12_XI45/XI1/XI13/MM5_d
+ N_XI45/XI1/NET92_XI45/XI1/XI13/MM5_g N_XI45/XI1/XI13/NET8_XI45/XI1/XI13/MM5_s
+ N_VSS_XI45/XI0/XI8/MM0_b N_18 L=1.8e-07 W=4.7e-07 AD=1.269e-13 AS=1.269e-13
+ PD=5.4e-07 PS=5.4e-07
mXI45/XI1/XI13/MM6 N_XI45/XI1/XI13/NET16_XI45/XI1/XI13/MM6_d
+ N_NET115_XI45/XI1/XI13/MM6_g N_XI45/XI1/XI13/NET12_XI45/XI1/XI13/MM6_s
+ N_VSS_XI45/XI0/XI8/MM0_b N_18 L=1.8e-07 W=4.7e-07 AD=1.269e-13 AS=1.269e-13
+ PD=5.4e-07 PS=5.4e-07
mXI45/XI1/XI13/MM7 N_XI45/NET263_XI45/XI1/XI13/MM7_d N_NET79_XI45/XI1/XI13/MM7_g
+ N_XI45/XI1/XI13/NET16_XI45/XI1/XI13/MM7_s N_VSS_XI45/XI0/XI8/MM0_b N_18
+ L=1.8e-07 W=4.7e-07 AD=2.303e-13 AS=1.269e-13 PD=1.45e-06 PS=5.4e-07
mXI45/XI1/XI14/MM4 N_XI45/XI1/XI14/NET8_XI45/XI1/XI14/MM4_d
+ N_NET110_XI45/XI1/XI14/MM4_g N_VSS_XI45/XI1/XI14/MM4_s
+ N_VSS_XI45/XI0/XI8/MM0_b N_18 L=1.8e-07 W=4.7e-07 AD=1.269e-13 AS=2.303e-13
+ PD=5.4e-07 PS=1.45e-06
mXI45/XI1/XI14/MM5 N_XI45/XI1/XI14/NET12_XI45/XI1/XI14/MM5_d
+ N_XI45/XI1/NET92_XI45/XI1/XI14/MM5_g N_XI45/XI1/XI14/NET8_XI45/XI1/XI14/MM5_s
+ N_VSS_XI45/XI0/XI8/MM0_b N_18 L=1.8e-07 W=4.7e-07 AD=1.269e-13 AS=1.269e-13
+ PD=5.4e-07 PS=5.4e-07
mXI45/XI1/XI14/MM6 N_XI45/XI1/XI14/NET16_XI45/XI1/XI14/MM6_d
+ N_XI45/XI1/NET081_XI45/XI1/XI14/MM6_g
+ N_XI45/XI1/XI14/NET12_XI45/XI1/XI14/MM6_s N_VSS_XI45/XI0/XI8/MM0_b N_18
+ L=1.8e-07 W=4.7e-07 AD=1.269e-13 AS=1.269e-13 PD=5.4e-07 PS=5.4e-07
mXI45/XI1/XI14/MM7 N_XI45/NET262_XI45/XI1/XI14/MM7_d N_NET79_XI45/XI1/XI14/MM7_g
+ N_XI45/XI1/XI14/NET16_XI45/XI1/XI14/MM7_s N_VSS_XI45/XI0/XI8/MM0_b N_18
+ L=1.8e-07 W=4.7e-07 AD=2.303e-13 AS=1.269e-13 PD=1.45e-06 PS=5.4e-07
mXI45/XI1/XI15/MM4 N_XI45/XI1/XI15/NET8_XI45/XI1/XI15/MM4_d
+ N_XI45/XI1/NET96_XI45/XI1/XI15/MM4_g N_VSS_XI45/XI1/XI15/MM4_s
+ N_VSS_XI45/XI0/XI8/MM0_b N_18 L=1.8e-07 W=4.7e-07 AD=1.269e-13 AS=2.303e-13
+ PD=5.4e-07 PS=1.45e-06
mXI45/XI1/XI15/MM5 N_XI45/XI1/XI15/NET12_XI45/XI1/XI15/MM5_d
+ N_NET90_XI45/XI1/XI15/MM5_g N_XI45/XI1/XI15/NET8_XI45/XI1/XI15/MM5_s
+ N_VSS_XI45/XI0/XI8/MM0_b N_18 L=1.8e-07 W=4.7e-07 AD=1.269e-13 AS=1.269e-13
+ PD=5.4e-07 PS=5.4e-07
mXI45/XI1/XI15/MM6 N_XI45/XI1/XI15/NET16_XI45/XI1/XI15/MM6_d
+ N_NET115_XI45/XI1/XI15/MM6_g N_XI45/XI1/XI15/NET12_XI45/XI1/XI15/MM6_s
+ N_VSS_XI45/XI0/XI8/MM0_b N_18 L=1.8e-07 W=4.7e-07 AD=1.269e-13 AS=1.269e-13
+ PD=5.4e-07 PS=5.4e-07
mXI45/XI1/XI15/MM7 N_XI45/NET261_XI45/XI1/XI15/MM7_d N_NET79_XI45/XI1/XI15/MM7_g
+ N_XI45/XI1/XI15/NET16_XI45/XI1/XI15/MM7_s N_VSS_XI45/XI0/XI8/MM0_b N_18
+ L=1.8e-07 W=4.7e-07 AD=2.303e-13 AS=1.269e-13 PD=1.45e-06 PS=5.4e-07
mXI45/XI1/XI16/MM4 N_XI45/XI1/XI16/NET8_XI45/XI1/XI16/MM4_d
+ N_XI45/XI1/NET96_XI45/XI1/XI16/MM4_g N_VSS_XI45/XI1/XI16/MM4_s
+ N_VSS_XI45/XI0/XI8/MM0_b N_18 L=1.8e-07 W=4.7e-07 AD=1.269e-13 AS=2.303e-13
+ PD=5.4e-07 PS=1.45e-06
mXI45/XI1/XI16/MM5 N_XI45/XI1/XI16/NET12_XI45/XI1/XI16/MM5_d
+ N_NET90_XI45/XI1/XI16/MM5_g N_XI45/XI1/XI16/NET8_XI45/XI1/XI16/MM5_s
+ N_VSS_XI45/XI0/XI8/MM0_b N_18 L=1.8e-07 W=4.7e-07 AD=1.269e-13 AS=1.269e-13
+ PD=5.4e-07 PS=5.4e-07
mXI45/XI1/XI16/MM6 N_XI45/XI1/XI16/NET16_XI45/XI1/XI16/MM6_d
+ N_XI45/XI1/NET081_XI45/XI1/XI16/MM6_g
+ N_XI45/XI1/XI16/NET12_XI45/XI1/XI16/MM6_s N_VSS_XI45/XI0/XI8/MM0_b N_18
+ L=1.8e-07 W=4.7e-07 AD=1.269e-13 AS=1.269e-13 PD=5.4e-07 PS=5.4e-07
mXI45/XI1/XI16/MM7 N_XI45/NET260_XI45/XI1/XI16/MM7_d N_NET79_XI45/XI1/XI16/MM7_g
+ N_XI45/XI1/XI16/NET16_XI45/XI1/XI16/MM7_s N_VSS_XI45/XI0/XI8/MM0_b N_18
+ L=1.8e-07 W=4.7e-07 AD=2.303e-13 AS=1.269e-13 PD=1.45e-06 PS=5.4e-07
mXI45/XI1/XI17/MM4 N_XI45/XI1/XI17/NET8_XI45/XI1/XI17/MM4_d
+ N_XI45/XI1/NET96_XI45/XI1/XI17/MM4_g N_VSS_XI45/XI1/XI17/MM4_s
+ N_VSS_XI45/XI0/XI8/MM0_b N_18 L=1.8e-07 W=4.7e-07 AD=1.269e-13 AS=2.303e-13
+ PD=5.4e-07 PS=1.45e-06
mXI45/XI1/XI17/MM5 N_XI45/XI1/XI17/NET12_XI45/XI1/XI17/MM5_d
+ N_XI45/XI1/NET92_XI45/XI1/XI17/MM5_g N_XI45/XI1/XI17/NET8_XI45/XI1/XI17/MM5_s
+ N_VSS_XI45/XI0/XI8/MM0_b N_18 L=1.8e-07 W=4.7e-07 AD=1.269e-13 AS=1.269e-13
+ PD=5.4e-07 PS=5.4e-07
mXI45/XI1/XI17/MM6 N_XI45/XI1/XI17/NET16_XI45/XI1/XI17/MM6_d
+ N_NET115_XI45/XI1/XI17/MM6_g N_XI45/XI1/XI17/NET12_XI45/XI1/XI17/MM6_s
+ N_VSS_XI45/XI0/XI8/MM0_b N_18 L=1.8e-07 W=4.7e-07 AD=1.269e-13 AS=1.269e-13
+ PD=5.4e-07 PS=5.4e-07
mXI45/XI1/XI17/MM7 N_XI45/NET259_XI45/XI1/XI17/MM7_d N_NET79_XI45/XI1/XI17/MM7_g
+ N_XI45/XI1/XI17/NET16_XI45/XI1/XI17/MM7_s N_VSS_XI45/XI0/XI8/MM0_b N_18
+ L=1.8e-07 W=4.7e-07 AD=2.303e-13 AS=1.269e-13 PD=1.45e-06 PS=5.4e-07
mXI45/XI1/XI18/MM4 N_XI45/XI1/XI18/NET8_XI45/XI1/XI18/MM4_d
+ N_XI45/XI1/NET96_XI45/XI1/XI18/MM4_g N_VSS_XI45/XI1/XI18/MM4_s
+ N_VSS_XI45/XI0/XI8/MM0_b N_18 L=1.8e-07 W=4.7e-07 AD=1.269e-13 AS=2.303e-13
+ PD=5.4e-07 PS=1.45e-06
mXI45/XI1/XI18/MM5 N_XI45/XI1/XI18/NET12_XI45/XI1/XI18/MM5_d
+ N_XI45/XI1/NET92_XI45/XI1/XI18/MM5_g N_XI45/XI1/XI18/NET8_XI45/XI1/XI18/MM5_s
+ N_VSS_XI45/XI0/XI8/MM0_b N_18 L=1.8e-07 W=4.7e-07 AD=1.269e-13 AS=1.269e-13
+ PD=5.4e-07 PS=5.4e-07
mXI45/XI1/XI18/MM6 N_XI45/XI1/XI18/NET16_XI45/XI1/XI18/MM6_d
+ N_XI45/XI1/NET081_XI45/XI1/XI18/MM6_g
+ N_XI45/XI1/XI18/NET12_XI45/XI1/XI18/MM6_s N_VSS_XI45/XI0/XI8/MM0_b N_18
+ L=1.8e-07 W=4.7e-07 AD=1.269e-13 AS=1.269e-13 PD=5.4e-07 PS=5.4e-07
mXI45/XI1/XI18/MM7 N_XI45/NET258_XI45/XI1/XI18/MM7_d N_NET79_XI45/XI1/XI18/MM7_g
+ N_XI45/XI1/XI18/NET16_XI45/XI1/XI18/MM7_s N_VSS_XI45/XI0/XI8/MM0_b N_18
+ L=1.8e-07 W=4.7e-07 AD=2.303e-13 AS=1.269e-13 PD=1.45e-06 PS=5.4e-07
mXI47/MM3 N_NET0215_XI47/MM3_d N_NET0265_XI47/MM3_g N_DOUT<0>_XI47/MM3_s
+ N_VSS_XI45/XI0/XI8/MM0_b N_18 L=1.8e-07 W=7.5e-07 AD=3.675e-13 AS=1.92e-13
+ PD=1.73e-06 PS=8.58e-07
mXI47/MM0 N_NET0214_XI47/MM0_d N_NET0265_XI47/MM0_g N_NET0183_XI47/MM0_s
+ N_VSS_XI45/XI0/XI8/MM0_b N_18 L=1.8e-07 W=7.5e-07 AD=3.675e-13 AS=1.92e-13
+ PD=1.73e-06 PS=8.58e-07
mXI47/MM1 N_DOUT<0>_XI47/MM1_d N_NET0183_XI47/MM1_g N_VSS_XI47/MM1_s
+ N_VSS_XI45/XI0/XI8/MM0_b N_18 L=1.8e-07 W=5e-07 AD=1.28e-13 AS=1.8e-13
+ PD=5.72e-07 PS=7.2e-07
mXI47/MM2 N_NET0183_XI47/MM2_d N_DOUT<0>_XI47/MM2_g N_VSS_XI47/MM2_s
+ N_VSS_XI45/XI0/XI8/MM0_b N_18 L=1.8e-07 W=5e-07 AD=1.28e-13 AS=1.8e-13
+ PD=5.72e-07 PS=7.2e-07
mXI19/MM7 N_XI19/NET0139_XI19/MM7_d N_XI19/NET41_XI19/MM7_g N_VSS_XI19/MM7_s
+ N_VSS_XI45/XI0/XI8/MM0_b N_18 L=8e-07 W=4.7e-07 AD=2.303e-13 AS=2.303e-13
+ PD=1.45e-06 PS=1.45e-06
mXI19/MM4 N_XI19/NET41_XI19/MM4_d N_CLK_XI19/MM4_g N_VSS_XI19/MM4_s
+ N_VSS_XI45/XI0/XI8/MM0_b N_18 L=8e-07 W=4.7e-07 AD=2.303e-13 AS=2.303e-13
+ PD=1.45e-06 PS=1.45e-06
mXI19/MM2 N_NET81_XI19/MM2_d N_XI19/NET49_XI19/MM2_g N_VSS_XI19/MM2_s
+ N_VSS_XI45/XI0/XI8/MM0_b N_18 L=1.8e-07 W=4.7e-07 AD=2.303e-13 AS=2.303e-13
+ PD=1.45e-06 PS=1.45e-06
mXI19/MM1 N_XI19/NET49_XI19/MM1_d N_CLK_XI19/MM1_g N_VSS_XI19/MM1_s
+ N_VSS_XI45/XI0/XI8/MM0_b N_18 L=1.8e-07 W=4.7e-07 AD=2.303e-13 AS=2.303e-13
+ PD=1.45e-06 PS=1.45e-06
mXI11/MM7 N_XI11/NET13_XI11/MM7_d N_A<8>_XI11/MM7_g N_VSS_XI11/MM7_s
+ N_VSS_XI45/XI0/XI8/MM0_b N_18 L=1.8e-07 W=4.7e-07 AD=2.303e-13 AS=2.303e-13
+ PD=1.45e-06 PS=1.45e-06
mXI11/MM8 N_XI11/NET9_XI11/MM8_d N_CLK_XI11/MM8_g N_VSS_XI11/MM8_s
+ N_VSS_XI45/XI0/XI8/MM0_b N_18 L=1.8e-07 W=4.7e-07 AD=5.875e-14 AS=2.303e-13
+ PD=2.5e-07 PS=1.45e-06
mXI11/MM5 N_XI11/NET21_XI11/MM5_d N_XI11/NET13_XI11/MM5_g N_XI11/NET9_XI11/MM5_s
+ N_VSS_XI45/XI0/XI8/MM0_b N_18 L=1.8e-07 W=4.7e-07 AD=2.303e-13 AS=5.875e-14
+ PD=1.45e-06 PS=2.5e-07
mXI11/MM9 N_XI11/NET5_XI11/MM9_d N_XI11/NET21_XI11/MM9_g N_VSS_XI11/MM9_s
+ N_VSS_XI45/XI0/XI8/MM0_b N_18 L=1.8e-07 W=4.7e-07 AD=5.875e-14 AS=2.303e-13
+ PD=2.5e-07 PS=1.45e-06
mXI11/MM6 N_XI11/NET15_XI11/MM6_d N_CLK_XI11/MM6_g N_XI11/NET5_XI11/MM6_s
+ N_VSS_XI45/XI0/XI8/MM0_b N_18 L=1.8e-07 W=4.7e-07 AD=2.303e-13 AS=5.875e-14
+ PD=1.45e-06 PS=2.5e-07
mXI11/MM10 N_NET120_XI11/MM10_d N_XI11/NET15_XI11/MM10_g N_VSS_XI11/MM10_s
+ N_VSS_XI45/XI0/XI8/MM0_b N_18 L=1.8e-07 W=4.7e-07 AD=2.303e-13 AS=2.303e-13
+ PD=1.45e-06 PS=1.45e-06
mXI12/MM7 N_XI12/NET13_XI12/MM7_d N_A<5>_XI12/MM7_g N_VSS_XI12/MM7_s
+ N_VSS_XI45/XI0/XI8/MM0_b N_18 L=1.8e-07 W=4.7e-07 AD=2.303e-13 AS=2.303e-13
+ PD=1.45e-06 PS=1.45e-06
mXI12/MM8 N_XI12/NET9_XI12/MM8_d N_CLK_XI12/MM8_g N_VSS_XI12/MM8_s
+ N_VSS_XI45/XI0/XI8/MM0_b N_18 L=1.8e-07 W=4.7e-07 AD=5.875e-14 AS=2.303e-13
+ PD=2.5e-07 PS=1.45e-06
mXI12/MM5 N_XI12/NET21_XI12/MM5_d N_XI12/NET13_XI12/MM5_g N_XI12/NET9_XI12/MM5_s
+ N_VSS_XI45/XI0/XI8/MM0_b N_18 L=1.8e-07 W=4.7e-07 AD=2.303e-13 AS=5.875e-14
+ PD=1.45e-06 PS=2.5e-07
mXI12/MM9 N_XI12/NET5_XI12/MM9_d N_XI12/NET21_XI12/MM9_g N_VSS_XI12/MM9_s
+ N_VSS_XI45/XI0/XI8/MM0_b N_18 L=1.8e-07 W=4.7e-07 AD=5.875e-14 AS=2.303e-13
+ PD=2.5e-07 PS=1.45e-06
mXI12/MM6 N_XI12/NET15_XI12/MM6_d N_CLK_XI12/MM6_g N_XI12/NET5_XI12/MM6_s
+ N_VSS_XI45/XI0/XI8/MM0_b N_18 L=1.8e-07 W=4.7e-07 AD=2.303e-13 AS=5.875e-14
+ PD=1.45e-06 PS=2.5e-07
mXI12/MM10 N_NET115_XI12/MM10_d N_XI12/NET15_XI12/MM10_g N_VSS_XI12/MM10_s
+ N_VSS_XI45/XI0/XI8/MM0_b N_18 L=1.8e-07 W=4.7e-07 AD=2.303e-13 AS=2.303e-13
+ PD=1.45e-06 PS=1.45e-06
mXI17/MM7 N_XI17/NET13_XI17/MM7_d N_A<4>_XI17/MM7_g N_VSS_XI17/MM7_s
+ N_VSS_XI45/XI0/XI8/MM0_b N_18 L=1.8e-07 W=4.7e-07 AD=2.303e-13 AS=2.303e-13
+ PD=1.45e-06 PS=1.45e-06
mXI17/MM8 N_XI17/NET9_XI17/MM8_d N_CLK_XI17/MM8_g N_VSS_XI17/MM8_s
+ N_VSS_XI45/XI0/XI8/MM0_b N_18 L=1.8e-07 W=4.7e-07 AD=5.875e-14 AS=2.303e-13
+ PD=2.5e-07 PS=1.45e-06
mXI17/MM5 N_XI17/NET21_XI17/MM5_d N_XI17/NET13_XI17/MM5_g N_XI17/NET9_XI17/MM5_s
+ N_VSS_XI45/XI0/XI8/MM0_b N_18 L=1.8e-07 W=4.7e-07 AD=2.303e-13 AS=5.875e-14
+ PD=1.45e-06 PS=2.5e-07
mXI17/MM9 N_XI17/NET5_XI17/MM9_d N_XI17/NET21_XI17/MM9_g N_VSS_XI17/MM9_s
+ N_VSS_XI45/XI0/XI8/MM0_b N_18 L=1.8e-07 W=4.7e-07 AD=5.875e-14 AS=2.303e-13
+ PD=2.5e-07 PS=1.45e-06
mXI17/MM6 N_XI17/NET15_XI17/MM6_d N_CLK_XI17/MM6_g N_XI17/NET5_XI17/MM6_s
+ N_VSS_XI45/XI0/XI8/MM0_b N_18 L=1.8e-07 W=4.7e-07 AD=2.303e-13 AS=5.875e-14
+ PD=1.45e-06 PS=2.5e-07
mXI17/MM10 N_NET90_XI17/MM10_d N_XI17/NET15_XI17/MM10_g N_VSS_XI17/MM10_s
+ N_VSS_XI45/XI0/XI8/MM0_b N_18 L=1.8e-07 W=4.7e-07 AD=2.303e-13 AS=2.303e-13
+ PD=1.45e-06 PS=1.45e-06
mXI13/MM7 N_XI13/NET13_XI13/MM7_d N_A<3>_XI13/MM7_g N_VSS_XI13/MM7_s
+ N_VSS_XI45/XI0/XI8/MM0_b N_18 L=1.8e-07 W=4.7e-07 AD=2.303e-13 AS=2.303e-13
+ PD=1.45e-06 PS=1.45e-06
mXI13/MM8 N_XI13/NET9_XI13/MM8_d N_CLK_XI13/MM8_g N_VSS_XI13/MM8_s
+ N_VSS_XI45/XI0/XI8/MM0_b N_18 L=1.8e-07 W=4.7e-07 AD=5.875e-14 AS=2.303e-13
+ PD=2.5e-07 PS=1.45e-06
mXI13/MM5 N_XI13/NET21_XI13/MM5_d N_XI13/NET13_XI13/MM5_g N_XI13/NET9_XI13/MM5_s
+ N_VSS_XI45/XI0/XI8/MM0_b N_18 L=1.8e-07 W=4.7e-07 AD=2.303e-13 AS=5.875e-14
+ PD=1.45e-06 PS=2.5e-07
mXI13/MM9 N_XI13/NET5_XI13/MM9_d N_XI13/NET21_XI13/MM9_g N_VSS_XI13/MM9_s
+ N_VSS_XI45/XI0/XI8/MM0_b N_18 L=1.8e-07 W=4.7e-07 AD=5.875e-14 AS=2.303e-13
+ PD=2.5e-07 PS=1.45e-06
mXI13/MM6 N_XI13/NET15_XI13/MM6_d N_CLK_XI13/MM6_g N_XI13/NET5_XI13/MM6_s
+ N_VSS_XI45/XI0/XI8/MM0_b N_18 L=1.8e-07 W=4.7e-07 AD=2.303e-13 AS=5.875e-14
+ PD=1.45e-06 PS=2.5e-07
mXI13/MM10 N_NET110_XI13/MM10_d N_XI13/NET15_XI13/MM10_g N_VSS_XI13/MM10_s
+ N_VSS_XI45/XI0/XI8/MM0_b N_18 L=1.8e-07 W=4.7e-07 AD=2.303e-13 AS=2.303e-13
+ PD=1.45e-06 PS=1.45e-06
mXI19/MM18 N_XI19/NET37_XI19/MM18_d N_XI19/NET0139_XI19/MM18_g N_VSS_XI19/MM18_s
+ N_VSS_XI45/XI0/XI8/MM0_b N_18 L=8e-07 W=4.7e-07 AD=2.303e-13 AS=2.303e-13
+ PD=1.45e-06 PS=1.45e-06
mXI19/XI0/MM3 N_XI19/XI0/NET5_XI19/XI0/MM3_d N_XI19/NET37_XI19/XI0/MM3_g
+ N_VSS_XI19/XI0/MM3_s N_VSS_XI45/XI0/XI8/MM0_b N_18 L=1.8e-07 W=4.7e-07
+ AD=1.6685e-13 AS=2.303e-13 PD=7.1e-07 PS=1.45e-06
mXI19/XI0/MM2 N_NET79_XI19/XI0/MM2_d N_NET81_XI19/XI0/MM2_g
+ N_XI19/XI0/NET5_XI19/XI0/MM2_s N_VSS_XI45/XI0/XI8/MM0_b N_18 L=1.8e-07
+ W=4.7e-07 AD=2.303e-13 AS=1.6685e-13 PD=1.45e-06 PS=7.1e-07
mXI19/MM22 N_XI19/NET082_XI19/MM22_d N_NET81_XI19/MM22_g N_VSS_XI19/MM22_s
+ N_VSS_XI45/XI0/XI8/MM0_b N_18 L=1.8e-07 W=4.7e-07 AD=2.303e-13 AS=2.303e-13
+ PD=1.45e-06 PS=1.45e-06
mXI19/MM21 N_XI19/NET086_XI19/MM21_d N_XI19/NET082_XI19/MM21_g N_VSS_XI19/MM21_s
+ N_VSS_XI45/XI0/XI8/MM0_b N_18 L=3e-07 W=4.7e-07 AD=2.303e-13 AS=2.303e-13
+ PD=1.45e-06 PS=1.45e-06
mXI19/MM25 N_NET0265_XI19/MM25_d N_XI19/NET0100_XI19/MM25_g N_VSS_XI19/MM25_s
+ N_VSS_XI45/XI0/XI8/MM0_b N_18 L=1.8e-07 W=4.7e-07 AD=2.303e-13 AS=2.303e-13
+ PD=1.45e-06 PS=1.45e-06
mXI19/MM28 N_XI19/NET0100_XI19/MM28_d N_NET82_XI19/MM28_g N_VSS_XI19/MM28_s
+ N_VSS_XI45/XI0/XI8/MM0_b N_18 L=1.8e-07 W=4.7e-07 AD=2.303e-13 AS=2.773e-13
+ PD=1.45e-06 PS=1.65e-06
mXI19/MM16 N_NET82_XI19/MM16_d N_XI19/NET9_XI19/MM16_g N_VSS_XI19/MM16_s
+ N_VSS_XI45/XI0/XI8/MM0_b N_18 L=1.8e-07 W=4.7e-07 AD=2.303e-13 AS=2.303e-13
+ PD=1.45e-06 PS=1.45e-06
mXI19/XI1/MM2 N_XI19/NET9_XI19/XI1/MM2_d N_XI19/NET086_XI19/XI1/MM2_g
+ N_XI19/XI1/NET5_XI19/XI1/MM2_s N_VSS_XI45/XI0/XI8/MM0_b N_18 L=1.8e-07
+ W=4.7e-07 AD=2.303e-13 AS=1.6685e-13 PD=1.45e-06 PS=7.1e-07
mXI19/XI1/MM3 N_XI19/XI1/NET5_XI19/XI1/MM3_d N_XI19/NET086_XI19/XI1/MM3_g
+ N_VSS_XI19/XI1/MM3_s N_VSS_XI45/XI0/XI8/MM0_b N_18 L=1.8e-07 W=4.7e-07